C13H15N3O4SAPtclcactv02101922233D 0   0.00000     0.00000  36 37  0  0  0  0  0  0  0  0999 V2000   -0.2211    2.9198   -1.1169 C   0  0  0  0  0  0  0  0  0  0  0  0    0.8009    1.8138   -1.1765 C   0  0  0  0  0  0  0  0  0  0  0  0    1.6357    1.8063   -2.0562 O   0  0  0  0  0  0  0  0  0  0  0  0    0.7871    0.8331   -0.2521 N   0  0  0  0  0  0  0  0  0  0  0  0    1.6617   -0.2379   -0.3641 C   0  0  0  0  0  0  0  0  0  0  0  0    2.8820   -0.3653    0.2347 C   0  0  0  0  0  0  0  0  0  0  0  0    3.5727    0.6107    1.1520 C   0  0  0  0  0  0  0  0  0  0  0  0    3.3457   -1.6219   -0.2044 C   0  0  0  0  0  0  0  0  0  0  0  0    4.6557   -2.2748    0.1541 C   0  0  0  0  0  0  0  0  0  0  0  0    2.4190   -2.1085   -0.9810 N   0  0  0  0  0  0  0  0  0  0  0  0    1.4751   -1.3592   -1.0783 O   0  0  0  0  0  0  0  0  0  0  0  0   -0.2738    0.9065    1.0173 S   0  0  0  0  0  0  0  0  0  0  0  0    0.2865    0.1135    2.0549 O   0  0  0  0  0  0  0  0  0  0  0  0   -0.6085    2.2777    1.1816 O   0  0  0  0  0  0  0  0  0  0  0  0   -1.7511    0.0910    0.5103 C   0  0  0  0  0  0  0  0  0  0  0  0   -1.9003   -1.2660    0.7305 C   0  0  0  0  0  0  0  0  0  0  0  0   -3.0569   -1.9084    0.3343 C   0  0  0  0  0  0  0  0  0  0  0  0   -4.0710   -1.1897   -0.2860 C   0  0  0  0  0  0  0  0  0  0  0  0   -5.2423   -1.8361   -0.6875 N   0  0  0  0  0  0  0  0  0  0  0  0   -3.9178    0.1733   -0.5056 C   0  0  0  0  0  0  0  0  0  0  0  0   -2.7610    0.8105   -0.1019 C   0  0  0  0  0  0  0  0  0  0  0  0   -0.0530    3.6145   -1.9399 H   0  0  0  0  0  0  0  0  0  0  0  0   -1.2215    2.4948   -1.1987 H   0  0  0  0  0  0  0  0  0  0  0  0   -0.1279    3.4499   -0.1691 H   0  0  0  0  0  0  0  0  0  0  0  0    3.3658    0.3441    2.1884 H   0  0  0  0  0  0  0  0  0  0  0  0    4.6478    0.5765    0.9757 H   0  0  0  0  0  0  0  0  0  0  0  0    3.2041    1.6174    0.9553 H   0  0  0  0  0  0  0  0  0  0  0  0    4.5265   -2.8799    1.0515 H   0  0  0  0  0  0  0  0  0  0  0  0    4.9820   -2.9106   -0.6689 H   0  0  0  0  0  0  0  0  0  0  0  0    5.4061   -1.5062    0.3391 H   0  0  0  0  0  0  0  0  0  0  0  0   -1.1113   -1.8242    1.2125 H   0  0  0  0  0  0  0  0  0  0  0  0   -3.1727   -2.9683    0.5063 H   0  0  0  0  0  0  0  0  0  0  0  0   -5.3482   -2.7879   -0.5333 H   0  0  0  0  0  0  0  0  0  0  0  0   -5.9497   -1.3333   -1.1205 H   0  0  0  0  0  0  0  0  0  0  0  0   -4.7043    0.7350   -0.9876 H   0  0  0  0  0  0  0  0  0  0  0  0   -2.6414    1.8703   -0.2720 H   0  0  0  0  0  0  0  0  0  0  0  0  1  2  1  0  0  0  0  2  3  2  0  0  0  0  2  4  1  0  0  0  0  4  5  1  0  0  0  0  5  6  2  0  0  0  0  6  7  1  0  0  0  0  6  8  1  0  0  0  0  8  9  1  0  0  0  0  8 10  2  0  0  0  0 10 11  1  0  0  0  0  5 11  1  0  0  0  0  4 12  1  0  0  0  0 12 13  2  0  0  0  0 12 14  2  0  0  0  0 12 15  1  0  0  0  0 15 16  2  0  0  0  0 16 17  1  0  0  0  0 17 18  2  0  0  0  0 18 19  1  0  0  0  0 18 20  1  0  0  0  0 20 21  2  0  0  0  0 15 21  1  0  0  0  0  1 22  1  0  0  0  0  1 23  1  0  0  0  0  1 24  1  0  0  0  0  7 25  1  0  0  0  0  7 26  1  0  0  0  0  7 27  1  0  0  0  0  9 28  1  0  0  0  0  9 29  1  0  0  0  0  9 30  1  0  0  0  0 16 31  1  0  0  0  0 17 32  1  0  0  0  0 19 33  1  0  0  0  0 19 34  1  0  0  0  0 20 35  1  0  0  0  0 21 36  1  0  0  0  0M  END$$$$