13_cis_retinoic_acid
  MOE2008           3D

 22 22  0  0  0  0  0  0  0  0999 V2000
   10.6160    5.4820   -0.2300 O   0  0  0  0  0  0  0  0  0  0  0  0
    9.9350    3.3080   -0.3420 O   0  0  0  0  0  0  0  0  0  0  0  0
    2.1650   -3.7930   -0.4060 C   0  0  0  0  0  0  0  0  0  0  0  0
    1.9360   -5.2870   -0.2160 C   0  0  0  0  0  0  0  0  0  0  0  0
    3.1970   -6.0950   -0.4140 C   0  0  0  0  0  0  0  0  0  0  0  0
    3.4270   -3.2930    0.2730 C   0  0  0  0  0  0  0  0  0  0  0  0
    4.2930   -5.6270    0.5190 C   0  0  0  0  0  0  0  0  0  0  0  0
    4.3720   -4.1470    0.7160 C   0  0  0  0  0  0  0  0  0  0  0  0
    0.9180   -3.1060    0.1200 C   0  0  0  0  0  0  0  0  0  0  0  0
    2.2620   -3.5100   -1.8950 C   0  0  0  0  0  0  0  0  0  0  0  0
    3.4900   -1.8530    0.4430 C   0  0  0  0  0  0  0  0  0  0  0  0
    5.5940   -3.7230    1.4610 C   0  0  0  0  0  0  0  0  0  0  0  0
    4.5660   -1.0700    0.3160 C   0  0  0  0  0  0  0  0  0  0  0  0
    4.5800    0.3580    0.4930 C   0  0  0  0  0  0  0  0  0  0  0  0
    3.3000    1.0310    0.8560 C   0  0  0  0  0  0  0  0  0  0  0  0
    5.7270    1.0260    0.3240 C   0  0  0  0  0  0  0  0  0  0  0  0
    5.8760    2.4440    0.4680 C   0  0  0  0  0  0  0  0  0  0  0  0
    7.0420    3.0690    0.2850 C   0  0  0  0  0  0  0  0  0  0  0  0
    7.2550    4.4870    0.4140 C   0  0  0  0  0  0  0  0  0  0  0  0
    6.0830    5.3300    0.7850 C   0  0  0  0  0  0  0  0  0  0  0  0
    8.4270    5.0940    0.2220 C   0  0  0  0  0  0  0  0  0  0  0  0
    9.7040    4.4870   -0.1440 C   0  0  0  0  0  0  0  0  0  0  0  0
  1 22  1  0  0  0  0
  2 22  2  0  0  0  0
  3  4  1  0  0  0  0
  3  6  1  0  0  0  0
  3  9  1  0  0  0  0
  3 10  1  0  0  0  0
  4  5  1  0  0  0  0
  5  7  1  0  0  0  0
  6  8  2  0  0  0  0
  6 11  1  0  0  0  0
  7  8  1  0  0  0  0
  8 12  1  0  0  0  0
 11 13  2  0  0  0  0
 13 14  1  0  0  0  0
 14 15  1  0  0  0  0
 14 16  2  0  0  0  0
 16 17  1  0  0  0  0
 17 18  2  0  0  0  0
 18 19  1  0  0  0  0
 19 20  1  0  0  0  0
 19 21  2  0  0  0  0
 21 22  1  0  0  0  0
M  END
>  <ID>
13_cis_retinoic_acid

> <PRIMARY_SOM_1A2>
7

> <PRIMARY_SOM_2A6>
7

> <PRIMARY_SOM_2B6>
7

> <PRIMARY_SOM_2C19>
7

> <PRIMARY_SOM_2C8>
7

> <PRIMARY_SOM_2C9>
7

> <PRIMARY_SOM_2D6>
7

> <PRIMARY_SOM_2E1>
7

> <PRIMARY_SOM_3A4>
7

>  <Citation>
Marill et al.,Biochem. Pharmacol.,63,933,2002
Marill et al.,Biochem. Pharmacol.,63,933,2002
Marill et al.,Biochem. Pharmacol.,63,933,2002
Marill et al.,Biochem. Pharmacol.,63,933,2002
Marill et al.,Biochem. Pharmacol.,63,933,2002
Marill et al.,Biochem. Pharmacol.,63,933,2002
Marill et al.,Biochem. Pharmacol.,63,933,2002
Marill et al.,Biochem. Pharmacol.,63,933,2002
Marill et al.,Biochem. Pharmacol.,63,933,2002

$$$$
1_2_4_trichlorobenzene
  MOE2008           3D

  9  9  0  0  0  0  0  0  0  0999 V2000
    0.0020   -0.0040    0.0020 Cl  0  0  0  0  0  0  0  0  0  0  0  0
   -0.0220    1.7320    0.0120 C   0  0  0  0  0  0  0  0  0  0  0  0
    1.1670    2.4400    0.0040 C   0  0  0  0  0  0  0  0  0  0  0  0
    1.1490    3.8220    0.0120 C   0  0  0  0  0  0  0  0  0  0  0  0
   -0.0570    4.4980    0.0270 C   0  0  0  0  0  0  0  0  0  0  0  0
   -1.2480    3.7900    0.0350 C   0  0  0  0  0  0  0  0  0  0  0  0
   -1.2290    2.4070    0.0210 C   0  0  0  0  0  0  0  0  0  0  0  0
   -0.0800    6.2340    0.0380 Cl  0  0  0  0  0  0  0  0  0  0  0  0
   -2.7620    4.6380    0.0550 Cl  0  0  0  0  0  0  0  0  0  0  0  0
  1  2  1  0  0  0  0
  2  3  1  0  0  0  0
  2  7  2  0  0  0  0
  3  4  2  0  0  0  0
  4  5  1  0  0  0  0
  5  6  2  0  0  0  0
  5  8  1  0  0  0  0
  6  7  1  0  0  0  0
  6  9  1  0  0  0  0
M  END
>  <ID>
1_2_4_trichlorobenzene

> <PRIMARY_SOM_1A2>
3 4

> <PRIMARY_SOM_2D6>
3

> <PRIMARY_SOM_2E1>
3

> <SECONDARY_SOM_2E1>
4

> <PRIMARY_SOM_3A4>
3

> <SECONDARY_SOM_3A4>
7

>  <Citation>
Bogaards, J.J.P.; Omen, B.V.; Wolf, C.R.; Van Bladeren, P.J. Human Cytochrome P450 Enzyme Selectivities in the Oxidation of Chlorinated Benzenes. Toxicol. Appl. Pharamcol. 1995, 132, 44?2.
Bogaards, J.J.P.; Omen, B.V.; Wolf, C.R.; Van Bladeren, P.J. Human Cytochrome P450 Enzyme Selectivities in the Oxidation of Chlorinated Benzenes. Toxicol. Appl. Pharamcol. 1995, 132, 44?2.
Bogaards, J.J.P.; Omen, B.V.; Wolf, C.R.; Van Bladeren, P.J. Human Cytochrome P450 Enzyme Selectivities in the Oxidation of Chlorinated Benzenes. Toxicol. Appl. Pharamcol. 1995, 132, 44?2.
Bogaards et al.,Toxicol. Appl. Pharmacol.,132,44,1995