
  CDK     02041922272D

 10 11  0  0  0  0  0  0  0  0999 V2000
   -0.9100    2.7000    0.0000 S   0  0  0  0  0  0  0  0  0  0  0  0
   -0.9100    1.2000    0.0000 C   0  0  0  0  0  0  0  0  0  0  0  0
   -2.2100    0.4500    0.0000 N   0  0  0  0  0  0  0  0  0  0  0  0
   -2.2100   -1.0500    0.0000 C   0  0  0  0  0  0  0  0  0  0  0  0
   -0.9100   -1.8000    0.0000 N   0  0  0  0  0  0  0  0  0  0  0  0
    0.3900   -1.0500    0.0000 C   0  0  0  0  0  0  0  0  0  0  0  0
    1.8200   -1.5100    0.0000 N   0  0  0  0  0  0  0  0  0  0  0  0
    2.7000   -0.3000    0.0000 C   0  0  0  0  0  0  0  0  0  0  0  0
    1.8200    0.9100    0.0000 N   0  0  0  0  0  0  0  0  0  0  0  0
    0.3900    0.4500    0.0000 C   0  0  0  0  0  0  0  0  0  0  0  0
  1  2  1  0  0  0  0 
  2  3  1  0  0  0  0 
  3  4  2  0  0  0  0 
  4  5  1  0  0  0  0 
  5  6  2  0  0  0  0 
  6  7  1  0  0  0  0 
  7  8  2  0  0  0  0 
  8  9  1  0  0  0  0 
  9 10  1  0  0  0  0 
  2 10  2  0  0  0  0 
  6 10  1  0  0  0  0 
M  END
> <SMILES>
Sc1ncnc2nc[nH]c12

$$$$

  CDK     02041922272D

 18 19  0  0  0  0  0  0  0  0999 V2000
   -1.2158   -2.9090    0.0000 N   0  0  0  0  0  0  0  0  0  0  0  0
   -1.1600   -1.4100    0.0000 C   0  0  0  0  0  0  0  0  0  0  0  0
   -2.4000   -0.6700    0.0000 N   0  0  0  0  0  0  0  0  0  0  0  0
   -2.3600    0.8500    0.0000 C   0  0  0  0  0  0  0  0  0  0  0  0
   -1.1000    1.5500    0.0000 N   0  0  0  0  0  0  0  0  0  0  0  0
    0.1800    0.7900    0.0000 C   0  0  0  0  0  0  0  0  0  0  0  0
    0.1800   -0.7400    0.0000 C   0  0  0  0  0  0  0  0  0  0  0  0
    1.6000   -1.2200    0.0000 N   0  0  0  0  0  0  0  0  0  0  0  0
    2.5100   -0.0300    0.0000 C   0  0  0  0  0  0  0  0  0  0  0  0
    1.6600    1.1900    0.0000 N   0  0  0  0  0  0  0  0  0  0  0  0
    2.1732    2.5995    0.0000 C   0  0  0  0  0  0  0  0  0  0  0  0
    3.6504    2.8598    0.0000 C   0  0  0  0  0  0  0  0  0  0  0  0
    4.1635    4.2693    0.0000 O   0  0  0  0  0  0  0  0  0  0  0  0
    5.6408    4.5297    0.0000 C   0  0  0  0  0  0  0  0  0  0  0  0
    6.1539    5.9392    0.0000 P   0  0  0  0  0  0  0  0  0  0  0  0
    6.1541    7.4392    0.0000 O   0  0  0  0  0  0  0  0  0  0  0  0
    7.6312    6.1995    0.0000 O   0  0  0  0  0  0  0  0  0  0  0  0
    4.6768    6.1998    0.0000 O   0  0  0  0  0  0  0  0  0  0  0  0
  1  2  1  0  0  0  0 
  2  3  2  0  0  0  0 
  3  4  1  0  0  0  0 
  4  5  2  0  0  0  0 
  5  6  1  0  0  0  0 
  6  7  2  0  0  0  0 
  2  7  1  0  0  0  0 
  7  8  1  0  0  0  0 
  8  9  2  0  0  0  0 
  9 10  1  0  0  0  0 
  6 10  1  0  0  0  0 
 10 11  1  0  0  0  0 
 11 12  1  0  0  0  0 
 12 13  1  0  0  0  0 
 13 14  1  0  0  0  0 
 14 15  1  0  0  0  0 
 15 16  2  0  0  0  0 
 15 17  1  0  0  0  0 
 15 18  1  0  0  0  0 
M  END
> <SMILES>
Nc1ncnc2c1ncn2CCOCP(=O)(O)O

$$$$

  CDK     02041922272D

 31 35  0  0  0  0  0  0  0  0999 V2000
    7.4504    1.3015    0.0000 C   0  0  0  0  0  0  0  0  0  0  0  0
    6.1514    0.5515    0.0000 C   0  0  0  0  0  0  0  0  0  0  0  0
    6.1514   -0.9485    0.0000 O   0  0  0  0  0  0  0  0  0  0  0  0
    4.8524    1.3015    0.0000 O   0  0  0  0  0  0  0  0  0  0  0  0
    3.5533    0.5515    0.0000 C   0  0  0  0  0  0  0  0  0  0  0  0
    3.5533   -0.9485    0.0000 C   0  0  0  0  0  0  0  0  0  0  0  0
    2.2543   -1.6985    0.0000 C   0  0  0  0  0  0  0  0  0  0  0  0
    0.9553   -0.9485    0.0000 C   0  0  0  0  0  0  0  0  0  0  0  0
    0.9553    0.5515    0.0000 C   0  0  0  0  0  0  0  0  0  0  0  0
   -0.3438    1.3015    0.0000 O   0  0  0  0  0  0  0  0  0  0  0  0
   -1.6428    0.5515    0.0000 C   0  0  0  0  0  0  0  0  0  0  0  0
   -2.9419    1.3015    0.0000 C   0  0  0  0  0  0  0  0  0  0  0  0
   -4.2409    0.5515    0.0000 C   0  0  0  0  0  0  0  0  0  0  0  0
   -5.5399    1.3015    0.0000 O   0  0  0  0  0  0  0  0  0  0  0  0
   -6.8390    0.5515    0.0000 C   0  0  0  0  0  0  0  0  0  0  0  0
   -6.8390   -0.9485    0.0000 O   0  0  0  0  0  0  0  0  0  0  0  0
   -8.1380    1.3015    0.0000 C   0  0  0  0  0  0  0  0  0  0  0  0
   -4.2409   -0.9485    0.0000 C   0  0  0  0  0  0  0  0  0  0  0  0
   -2.9419   -1.6985    0.0000 C   0  0  0  0  0  0  0  0  0  0  0  0
   -1.6428   -0.9485    0.0000 C   0  0  0  0  0  0  0  0  0  0  0  0
   -0.3438   -1.6985    0.0000 C   0  0  0  0  0  0  0  0  0  0  0  0
    0.8697   -2.5802    0.0000 O   0  0  0  0  0  0  0  0  0  0  0  0
    0.4062   -4.0067    0.0000 C   0  0  0  0  0  0  0  0  0  0  0  0
    1.2879   -5.2203    0.0000 O   0  0  0  0  0  0  0  0  0  0  0  0
   -1.0938   -4.0067    0.0000 C   0  0  0  0  0  0  0  0  0  0  0  0
   -2.0975   -5.1215    0.0000 C   0  0  0  0  0  0  0  0  0  0  0  0
   -3.5647   -4.8096    0.0000 C   0  0  0  0  0  0  0  0  0  0  0  0
   -4.0282   -3.3830    0.0000 C   0  0  0  0  0  0  0  0  0  0  0  0
   -3.0245   -2.2683    0.0000 C   0  0  0  0  0  0  0  0  0  0  0  0
   -1.5573   -2.5802    0.0000 C   0  0  0  0  0  0  0  0  0  0  0  0
    2.2543    1.3015    0.0000 C   0  0  0  0  0  0  0  0  0  0  0  0
  1  2  1  0  0  0  0 
  2  3  2  0  0  0  0 
  2  4  1  0  0  0  0 
  4  5  1  0  0  0  0 
  5  6  2  0  0  0  0 
  6  7  1  0  0  0  0 
  7  8  2  0  0  0  0 
  8  9  1  0  0  0  0 
  9 10  1  0  0  0  0 
 10 11  1  0  0  0  0 
 11 12  2  0  0  0  0 
 12 13  1  0  0  0  0 
 13 14  1  0  0  0  0 
 14 15  1  0  0  0  0 
 15 16  2  0  0  0  0 
 15 17  1  0  0  0  0 
 13 18  2  0  0  0  0 
 18 19  1  0  0  0  0 
 19 20  2  0  0  0  0 
 11 20  1  0  0  0  0 
 20 21  1  0  0  0  0 
  8 21  1  0  0  0  0 
 21 22  1  0  0  0  0 
 22 23  1  0  0  0  0 
 23 24  2  0  0  0  0 
 23 25  1  0  0  0  0 
 25 26  2  0  0  0  0 
 26 27  1  0  0  0  0 
 27 28  2  0  0  0  0 
 28 29  1  0  0  0  0 
 29 30  2  0  0  0  0 
 21 30  1  0  0  0  0 
 25 30  1  0  0  0  0 
  9 31  2  0  0  0  0 
  5 31  1  0  0  0  0 
M  END
> <SMILES>
CC(=O)Oc1ccc2c(Oc3cc(OC(=O)C)ccc3C24OC(=O)c5ccccc45)c1

$$$$

  CDK     02041922272D

 34 36  0  0  0  0  0  0  0  0999 V2000
   15.5937   -5.2376    0.0000 C   0  0  0  0  0  0  0  0  0  0  0  0
   14.2959   -5.9897    0.0000 N   0  0  0  0  0  0  0  0  0  0  0  0
   14.2985   -7.4897    0.0000 C   0  0  0  0  0  0  0  0  0  0  0  0
   12.9957   -5.2419    0.0000 C   0  0  0  0  0  0  0  0  0  0  0  0
   12.9931   -3.7419    0.0000 O   0  0  0  0  0  0  0  0  0  0  0  0
   11.6979   -5.9941    0.0000 C   0  0  0  0  0  0  0  0  0  0  0  0
   10.3976   -5.2463    0.0000 C   0  0  0  0  0  0  0  0  0  0  0  0
    9.0998   -5.9984    0.0000 S   0  0  0  0  0  0  0  0  0  0  0  0
    7.7995   -5.2506    0.0000 C   0  0  0  0  0  0  0  0  0  0  0  0
    6.5017   -6.0028    0.0000 S   0  0  0  0  0  0  0  0  0  0  0  0
    6.5042   -7.5028    0.0000 C   0  0  0  0  0  0  0  0  0  0  0  0
    7.8045   -8.2506    0.0000 C   0  0  0  0  0  0  0  0  0  0  0  0
    7.8070   -9.7506    0.0000 C   0  0  0  0  0  0  0  0  0  0  0  0
    6.5093  -10.5028    0.0000 O   0  0  0  0  0  0  0  0  0  0  0  0
    9.1073  -10.4984    0.0000 O   0  0  0  0  0  0  0  0  0  0  0  0
    7.7970   -3.7506    0.0000 C   0  0  0  0  0  0  0  0  0  0  0  0
    9.0870   -3.0006    0.0000 C   0  0  0  0  0  0  0  0  0  0  0  0
    9.0870   -1.5006    0.0000 C   0  0  0  0  0  0  0  0  0  0  0  0
    7.7970   -0.7506    0.0000 C   0  0  0  0  0  0  0  0  0  0  0  0
    6.4970   -1.5006    0.0000 C   0  0  0  0  0  0  0  0  0  0  0  0
    5.1981   -0.7504    0.0000 C   0  0  0  0  0  0  0  0  0  0  0  0
    3.8989   -1.5002    0.0000 C   0  0  0  0  0  0  0  0  0  0  0  0
    2.6000   -0.7500    0.0000 C   0  0  0  0  0  0  0  0  0  0  0  0
    2.6000    0.7500    0.0000 C   0  0  0  0  0  0  0  0  0  0  0  0
    1.3000    1.5000    0.0000 C   0  0  0  0  0  0  0  0  0  0  0  0
   -0.0000    0.7500    0.0000 C   0  0  0  0  0  0  0  0  0  0  0  0
   -1.3000    1.5000    0.0000 C   0  0  0  0  0  0  0  0  0  0  0  0
   -2.6000    0.7500    0.0000 C   0  0  0  0  0  0  0  0  0  0  0  0
   -2.6000   -0.7500    0.0000 C   0  0  0  0  0  0  0  0  0  0  0  0
   -3.8989   -1.5002    0.0000 Cl  0  0  0  0  0  0  0  0  0  0  0  0
   -1.3000   -1.5000    0.0000 C   0  0  0  0  0  0  0  0  0  0  0  0
   -0.0000   -0.7500    0.0000 C   0  0  0  0  0  0  0  0  0  0  0  0
    1.3000   -1.5000    0.0000 N   0  0  0  0  0  0  0  0  0  0  0  0
    6.4970   -3.0006    0.0000 C   0  0  0  0  0  0  0  0  0  0  0  0
  1  2  1  0  0  0  0 
  2  3  1  0  0  0  0 
  2  4  1  0  0  0  0 
  4  5  2  0  0  0  0 
  4  6  1  0  0  0  0 
  6  7  1  0  0  0  0 
  7  8  1  0  0  0  0 
  8  9  1  0  0  0  0 
  9 10  1  0  0  0  0 
 10 11  1  0  0  0  0 
 11 12  1  0  0  0  0 
 12 13  1  0  0  0  0 
 13 14  2  0  0  0  0 
 13 15  1  0  0  0  0 
  9 16  1  0  0  0  0 
 16 17  2  0  0  0  0 
 17 18  1  0  0  0  0 
 18 19  2  0  0  0  0 
 19 20  1  0  0  0  0 
 20 21  1  4  0  0  0 
 21 22  2  0  0  0  0 
 22 23  1  0  0  0  0 
 23 24  2  0  0  0  0 
 24 25  1  0  0  0  0 
 25 26  2  0  0  0  0 
 26 27  1  0  0  0  0 
 27 28  2  0  0  0  0 
 28 29  1  0  0  0  0 
 29 30  1  0  0  0  0 
 29 31  2  0  0  0  0 
 31 32  1  0  0  0  0 
 26 32  1  0  0  0  0 
 32 33  2  0  0  0  0 
 23 33  1  0  0  0  0 
 20 34  2  0  0  0  0 
 16 34  1  0  0  0  0 
M  END
> <SMILES>
CN(C)C(=O)CCSC(SCCC(=O)O)c1cccc(C=Cc2ccc3ccc(Cl)cc3n2)c1

$$$$

  CDK     02041922272D

 36 39  0  0  0  0  0  0  0  0999 V2000
    7.7962   -0.7508    0.0000 O   0  0  0  0  0  0  0  0  0  0  0  0
    6.4970   -1.5006    0.0000 C   0  0  0  0  0  0  0  0  0  0  0  0
    5.1981   -0.7504    0.0000 C   0  0  0  0  0  0  0  0  0  0  0  0
    3.8989   -1.5002    0.0000 N   0  0  0  0  0  0  0  0  0  0  0  0
    3.8987   -3.0002    0.0000 C   0  0  0  0  0  0  0  0  0  0  0  0
    5.1976   -3.7504    0.0000 C   0  0  0  0  0  0  0  0  0  0  0  0
    5.1974   -5.2504    0.0000 O   0  0  0  0  0  0  0  0  0  0  0  0
    2.6000   -0.7500    0.0000 C   0  0  0  0  0  0  0  0  0  0  0  0
    2.6000    0.7500    0.0000 N   0  0  0  0  0  0  0  0  0  0  0  0
    1.3000    1.5000    0.0000 C   0  0  0  0  0  0  0  0  0  0  0  0
    1.3000    3.0000    0.0000 N   0  0  0  0  0  0  0  0  0  0  0  0
    0.0000    3.7500    0.0000 C   0  0  0  0  0  0  0  0  0  0  0  0
    0.0000    5.2500    0.0000 C   0  0  0  0  0  0  0  0  0  0  0  0
    1.3000    6.0000    0.0000 C   0  0  0  0  0  0  0  0  0  0  0  0
    2.6000    5.2500    0.0000 C   0  0  0  0  0  0  0  0  0  0  0  0
    2.6000    3.7500    0.0000 C   0  0  0  0  0  0  0  0  0  0  0  0
    0.0000    0.7500    0.0000 C   0  0  0  0  0  0  0  0  0  0  0  0
   -1.3000    1.5000    0.0000 N   0  0  0  0  0  0  0  0  0  0  0  0
   -2.6000    0.7500    0.0000 C   0  0  0  0  0  0  0  0  0  0  0  0
   -2.6000   -0.7500    0.0000 N   0  0  0  0  0  0  0  0  0  0  0  0
   -1.3000   -1.5000    0.0000 C   0  0  0  0  0  0  0  0  0  0  0  0
   -1.3000   -3.0000    0.0000 N   0  0  0  0  0  0  0  0  0  0  0  0
   -0.0000   -3.7500    0.0000 C   0  0  0  0  0  0  0  0  0  0  0  0
   -0.0000   -5.2500    0.0000 C   0  0  0  0  0  0  0  0  0  0  0  0
   -1.3000   -6.0000    0.0000 C   0  0  0  0  0  0  0  0  0  0  0  0
   -2.6000   -5.2500    0.0000 C   0  0  0  0  0  0  0  0  0  0  0  0
   -2.6000   -3.7500    0.0000 C   0  0  0  0  0  0  0  0  0  0  0  0
    0.0000   -0.7500    0.0000 C   0  0  0  0  0  0  0  0  0  0  0  0
    1.3000   -1.5000    0.0000 N   0  0  0  0  0  0  0  0  0  0  0  0
   -3.8989    1.5002    0.0000 N   0  0  0  0  0  0  0  0  0  0  0  0
   -5.1981    0.7504    0.0000 C   0  0  0  0  0  0  0  0  0  0  0  0
   -6.4970    1.5006    0.0000 C   0  0  0  0  0  0  0  0  0  0  0  0
   -7.7962    0.7508    0.0000 O   0  0  0  0  0  0  0  0  0  0  0  0
   -3.8987    3.0002    0.0000 C   0  0  0  0  0  0  0  0  0  0  0  0
   -5.1976    3.7504    0.0000 C   0  0  0  0  0  0  0  0  0  0  0  0
   -5.1974    5.2504    0.0000 O   0  0  0  0  0  0  0  0  0  0  0  0
  1  2  1  0  0  0  0 
  2  3  1  0  0  0  0 
  3  4  1  0  0  0  0 
  4  5  1  0  0  0  0 
  5  6  1  0  0  0  0 
  6  7  1  0  0  0  0 
  4  8  1  0  0  0  0 
  8  9  2  0  0  0  0 
  9 10  1  0  0  0  0 
 10 11  1  0  0  0  0 
 11 12  1  0  0  0  0 
 12 13  1  0  0  0  0 
 13 14  1  0  0  0  0 
 14 15  1  0  0  0  0 
 15 16  1  0  0  0  0 
 11 16  1  0  0  0  0 
 10 17  2  0  0  0  0 
 17 18  1  0  0  0  0 
 18 19  2  0  0  0  0 
 19 20  1  0  0  0  0 
 20 21  2  0  0  0  0 
 21 22  1  0  0  0  0 
 22 23  1  0  0  0  0 
 23 24  1  0  0  0  0 
 24 25  1  0  0  0  0 
 25 26  1  0  0  0  0 
 26 27  1  0  0  0  0 
 22 27  1  0  0  0  0 
 21 28  1  0  0  0  0 
 17 28  1  0  0  0  0 
 28 29  2  0  0  0  0 
  8 29  1  0  0  0  0 
 19 30  1  0  0  0  0 
 30 31  1  0  0  0  0 
 31 32  1  0  0  0  0 
 32 33  1  0  0  0  0 
 30 34  1  0  0  0  0 
 34 35  1  0  0  0  0 
 35 36  1  0  0  0  0 
M  END
> <SMILES>
OCCN(CCO)c1nc(N2CCCCC2)c3nc(nc(N4CCCCC4)c3n1)N(CCO)CCO

$$$$

  CDK     02041922272D

 22 25  0  0  1  0  0  0  0  0999 V2000
   -1.2158   -2.9090    0.0000 N   0  0  0  0  0  0  0  0  0  0  0  0
   -1.1600   -1.4100    0.0000 C   0  0  0  0  0  0  0  0  0  0  0  0
   -2.4000   -0.6700    0.0000 N   0  0  0  0  0  0  0  0  0  0  0  0
   -2.3600    0.8500    0.0000 C   0  0  0  0  0  0  0  0  0  0  0  0
   -1.1000    1.5500    0.0000 N   0  0  0  0  0  0  0  0  0  0  0  0
    0.1800    0.7900    0.0000 C   0  0  0  0  0  0  0  0  0  0  0  0
    0.1800   -0.7400    0.0000 C   0  0  0  0  0  0  0  0  0  0  0  0
    1.6000   -1.2200    0.0000 N   0  0  0  0  0  0  0  0  0  0  0  0
    2.5100   -0.0300    0.0000 C   0  0  0  0  0  0  0  0  0  0  0  0
    1.6600    1.1900    0.0000 N   0  0  0  0  0  0  0  0  0  0  0  0
    2.1732    2.5995    0.0000 C   0  0  2  0  0  0  0  0  0  0  0  0
    3.6121    3.0093    0.0000 O   0  0  0  0  0  0  0  0  0  0  0  0
    3.6717    4.5124    0.0000 C   0  0  2  0  0  0  0  0  0  0  0  0
    4.7524    5.2918    0.0000 C   0  0  0  0  0  0  0  0  0  0  0  0
    4.7236    6.5847    0.0000 O   0  0  0  0  0  0  0  0  0  0  0  0
    3.4294    7.4461    0.0000 P   0  0  0  0  0  0  0  0  0  0  0  0
    4.3955    8.5936    0.0000 O   0  0  0  0  0  0  0  0  0  0  0  0
    2.3976    8.5349    0.0000 O   0  0  0  0  0  0  0  0  0  0  0  0
    2.1569    6.4867    0.0000 O   0  0  0  0  0  0  0  0  0  0  0  0
    2.2624    5.0322    0.0000 C   0  0  1  0  0  0  0  0  0  0  0  0
    1.3311    3.8435    0.0000 C   0  0  1  0  0  0  0  0  0  0  0  0
   -0.1680    3.8956    0.0000 O   0  0  0  0  0  0  0  0  0  0  0  0
  1  2  1  0  0  0  0 
  2  3  2  0  0  0  0 
  3  4  1  0  0  0  0 
  4  5  2  0  0  0  0 
  5  6  1  0  0  0  0 
  6  7  2  0  0  0  0 
  2  7  1  0  0  0  0 
  7  8  1  0  0  0  0 
  8  9  2  0  0  0  0 
  9 10  1  0  0  0  0 
  6 10  1  0  0  0  0 
 11 10  1  1  0  0  0 
 11 12  1  0  0  0  0 
 13 12  1  1  0  0  0 
 13 14  1  0  0  0  0 
 14 15  1  0  0  0  0 
 15 16  1  0  0  0  0 
 16 17  2  0  0  0  0 
 16 18  1  0  0  0  0 
 16 19  1  0  0  0  0 
 20 19  1  6  0  0  0 
 13 20  1  0  0  0  0 
 20 21  1  0  0  0  0 
 11 21  1  0  0  0  0 
 21 22  1  6  0  0  0 
M  END
> <SMILES>
Nc1ncnc2c1ncn2[C@@H]3O[C@@H]4COP(=O)(O)O[C@H]4[C@H]3O

$$$$

  CDK     02041922272D

 24 24  0  0  1  0  0  0  0  0999 V2000
   -6.2661    0.4755    0.0000 C   0  0  0  0  0  0  0  0  0  0  0  0
   -4.8396    0.0116    0.0000 C   0  0  0  0  0  0  0  0  0  0  0  0
   -4.5280   -1.4556    0.0000 C   0  0  0  0  0  0  0  0  0  0  0  0
   -3.1015   -1.9195    0.0000 C   0  0  0  0  0  0  0  0  0  0  0  0
   -2.7900   -3.3867    0.0000 C   0  0  0  0  0  0  0  0  0  0  0  0
   -1.3635   -3.8506    0.0000 C   0  0  2  0  0  0  0  0  0  0  0  0
   -0.2485   -2.8471    0.0000 O   0  0  0  0  0  0  0  0  0  0  0  0
   -1.0519   -5.3178    0.0000 C   0  0  0  0  0  0  0  0  0  0  0  0
    0.3746   -5.7817    0.0000 C   0  0  0  0  0  0  0  0  0  0  0  0
    0.6862   -7.2489    0.0000 C   0  0  1  0  0  0  0  0  0  0  0  0
   -0.3136   -8.3573    0.0000 C   0  0  0  0  0  0  0  0  0  0  0  0
    0.4364   -9.6564    0.0000 C   0  0  0  0  0  0  0  0  0  0  0  0
    1.8962   -9.3447    0.0000 C   0  0  0  0  0  0  0  0  0  0  0  0
    3.0111  -10.3482    0.0000 O   0  0  0  0  0  0  0  0  0  0  0  0
    2.0533   -7.8568    0.0000 C   0  0  2  0  0  0  0  0  0  0  0  0
    3.3523   -7.1068    0.0000 C   0  0  0  0  0  0  0  0  0  0  0  0
    4.6513   -7.8568    0.0000 C   0  0  0  0  0  0  0  0  0  0  0  0
    5.9504   -7.1068    0.0000 C   0  0  0  0  0  0  0  0  0  0  0  0
    7.2494   -7.8568    0.0000 C   0  0  0  0  0  0  0  0  0  0  0  0
    8.5485   -7.1068    0.0000 C   0  0  0  0  0  0  0  0  0  0  0  0
    9.8475   -7.8568    0.0000 C   0  0  0  0  0  0  0  0  0  0  0  0
   11.1465   -7.1068    0.0000 C   0  0  0  0  0  0  0  0  0  0  0  0
   11.1465   -5.6068    0.0000 O   0  0  0  0  0  0  0  0  0  0  0  0
   12.4456   -7.8568    0.0000 O   0  0  0  0  0  0  0  0  0  0  0  0
  1  2  1  0  0  0  0 
  2  3  1  0  0  0  0 
  3  4  1  0  0  0  0 
  4  5  1  0  0  0  0 
  5  6  1  0  0  0  0 
  6  7  1  6  0  0  0 
  6  8  1  0  0  0  0 
  8  9  2  3  0  0  0 
 10  9  1  6  0  0  0 
 10 11  1  0  0  0  0 
 11 12  2  0  0  0  0 
 12 13  1  0  0  0  0 
 13 14  2  0  0  0  0 
 13 15  1  0  0  0  0 
 10 15  1  0  0  0  0 
 15 16  1  1  0  0  0 
 16 17  1  0  0  0  0 
 17 18  1  0  0  0  0 
 18 19  1  0  0  0  0 
 19 20  1  0  0  0  0 
 20 21  1  0  0  0  0 
 21 22  1  0  0  0  0 
 22 23  2  0  0  0  0 
 22 24  1  0  0  0  0 
M  END
> <SMILES>
CCCCC[C@H](O)C=C[C@H]1C=CC(=O)[C@@H]1CCCCCCC(=O)O

$$$$

  CDK     02041922272D

 26 26  0  0  1  0  0  0  0  0999 V2000
   -4.1583   -8.4004    0.0000 C   0  0  0  0  0  0  0  0  0  0  0  0
   -2.8592   -7.6506    0.0000 C   0  0  0  0  0  0  0  0  0  0  0  0
   -2.8589   -6.1506    0.0000 C   0  0  0  0  0  0  0  0  0  0  0  0
   -1.5598   -5.4008    0.0000 C   0  0  0  0  0  0  0  0  0  0  0  0
   -1.5595   -3.9008    0.0000 C   0  0  0  0  0  0  0  0  0  0  0  0
   -0.2604   -3.1510    0.0000 C   0  0  2  0  0  0  0  0  0  0  0  0
    1.0386   -3.9012    0.0000 O   0  0  0  0  0  0  0  0  0  0  0  0
   -0.2601   -1.6510    0.0000 C   0  0  0  0  0  0  0  0  0  0  0  0
    1.0390   -0.9012    0.0000 C   0  0  0  0  0  0  0  0  0  0  0  0
    1.0393    0.5988    0.0000 C   0  0  1  0  0  0  0  0  0  0  0  0
   -0.2602    1.3496    0.0000 O   0  0  0  0  0  0  0  0  0  0  0  0
   -0.2607    2.8504    0.0000 C   0  0  0  0  0  0  0  0  0  0  0  0
   -1.5599    3.6002    0.0000 O   0  0  0  0  0  0  0  0  0  0  0  0
    1.0383    3.6004    0.0000 C   0  0  0  0  0  0  0  0  0  0  0  0
    2.3378    2.8496    0.0000 C   0  0  2  0  0  0  0  0  0  0  0  0
    3.6369    3.5996    0.0000 O   0  0  0  0  0  0  0  0  0  0  0  0
    2.3383    1.3488    0.0000 C   0  0  2  0  0  0  0  0  0  0  0  0
    3.6375    0.5990    0.0000 C   0  0  0  0  0  0  0  0  0  0  0  0
    4.9364    1.3492    0.0000 C   0  0  0  0  0  0  0  0  0  0  0  0
    6.2356    0.5994    0.0000 C   0  0  0  0  0  0  0  0  0  0  0  0
    7.5345    1.3496    0.0000 C   0  0  0  0  0  0  0  0  0  0  0  0
    8.8336    0.5998    0.0000 C   0  0  0  0  0  0  0  0  0  0  0  0
   10.1325    1.3500    0.0000 C   0  0  0  0  0  0  0  0  0  0  0  0
   11.4317    0.6002    0.0000 C   0  0  0  0  0  0  0  0  0  0  0  0
   11.4319   -0.8998    0.0000 O   0  0  0  0  0  0  0  0  0  0  0  0
   12.7306    1.3504    0.0000 O   0  0  0  0  0  0  0  0  0  0  0  0
  1  2  1  0  0  0  0 
  2  3  1  0  0  0  0 
  3  4  1  0  0  0  0 
  4  5  1  0  0  0  0 
  5  6  1  0  0  0  0 
  6  7  1  1  0  0  0 
  6  8  1  0  0  0  0 
  8  9  2  3  0  0  0 
 10  9  1  1  0  0  0 
 10 11  1  0  0  0  0 
 11 12  1  0  0  0  0 
 12 13  1  0  0  0  0 
 12 14  1  0  0  0  0 
 14 15  1  0  0  0  0 
 15 16  1  6  0  0  0 
 15 17  1  0  0  0  0 
 10 17  1  0  0  0  0 
 17 18  1  6  0  0  0 
 18 19  1  4  0  0  0 
 19 20  2  0  0  0  0 
 20 21  1  0  0  0  0 
 21 22  1  0  0  0  0 
 22 23  1  0  0  0  0 
 23 24  1  0  0  0  0 
 24 25  2  0  0  0  0 
 24 26  1  0  0  0  0 
M  END
> <SMILES>
CCCCC[C@H](O)C=C[C@H]1OC(O)C[C@H](O)[C@@H]1CC=C/CCCC(=O)O

$$$$

  CDK     02041922272D

 25 25  0  0  1  0  0  0  0  0999 V2000
   -7.8039   -2.5302    0.0000 C   0  0  0  0  0  0  0  0  0  0  0  0
   -6.3115   -2.6813    0.0000 C   0  0  0  0  0  0  0  0  0  0  0  0
   -5.4345   -1.4645    0.0000 C   0  0  0  0  0  0  0  0  0  0  0  0
   -3.9421   -1.6156    0.0000 C   0  0  0  0  0  0  0  0  0  0  0  0
   -3.0651   -0.3987    0.0000 C   0  0  0  0  0  0  0  0  0  0  0  0
   -1.5727   -0.5498    0.0000 C   0  0  2  0  0  0  0  0  0  0  0  0
   -0.9574   -1.9178    0.0000 O   0  0  0  0  0  0  0  0  0  0  0  0
   -0.6956    0.6670    0.0000 C   0  0  0  0  0  0  0  0  0  0  0  0
    0.7967    0.5159    0.0000 C   0  0  0  0  0  0  0  0  0  0  0  0
    1.6738    1.7327    0.0000 C   0  0  1  0  0  0  0  0  0  0  0  0
    1.2038    3.1427    0.0000 C   0  0  2  0  0  0  0  0  0  0  0  0
   -0.2271    3.5928    0.0000 O   0  0  0  0  0  0  0  0  0  0  0  0
    2.4138    4.0427    0.0000 C   0  0  0  0  0  0  0  0  0  0  0  0
    3.6438    3.1627    0.0000 C   0  0  0  0  0  0  0  0  0  0  0  0
    5.0695    3.6291    0.0000 O   0  0  0  0  0  0  0  0  0  0  0  0
    3.1738    1.7327    0.0000 C   0  0  2  0  0  0  0  0  0  0  0  0
    4.0534    0.5177    0.0000 C   0  0  0  0  0  0  0  0  0  0  0  0
    5.5455    0.6720    0.0000 C   0  0  0  0  0  0  0  0  0  0  0  0
    6.4251   -0.5430    0.0000 C   0  0  0  0  0  0  0  0  0  0  0  0
    7.9171   -0.3888    0.0000 C   0  0  0  0  0  0  0  0  0  0  0  0
    8.7968   -1.6038    0.0000 C   0  0  0  0  0  0  0  0  0  0  0  0
   10.2888   -1.4495    0.0000 C   0  0  0  0  0  0  0  0  0  0  0  0
   11.1684   -2.6645    0.0000 C   0  0  0  0  0  0  0  0  0  0  0  0
   10.5560   -4.0338    0.0000 O   0  0  0  0  0  0  0  0  0  0  0  0
   12.6605   -2.5103    0.0000 O   0  0  0  0  0  0  0  0  0  0  0  0
  1  2  1  0  0  0  0 
  2  3  1  0  0  0  0 
  3  4  1  0  0  0  0 
  4  5  1  0  0  0  0 
  5  6  1  0  0  0  0 
  6  7  1  1  0  0  0 
  6  8  1  0  0  0  0 
  8  9  2  3  0  0  0 
 10  9  1  1  0  0  0 
 10 11  1  0  0  0  0 
 11 12  1  6  0  0  0 
 11 13  1  0  0  0  0 
 13 14  1  0  0  0  0 
 14 15  2  0  0  0  0 
 14 16  1  0  0  0  0 
 10 16  1  0  0  0  0 
 16 17  1  6  0  0  0 
 17 18  1  4  0  0  0 
 18 19  2  0  0  0  0 
 19 20  1  0  0  0  0 
 20 21  1  0  0  0  0 
 21 22  1  0  0  0  0 
 22 23  1  0  0  0  0 
 23 24  2  0  0  0  0 
 23 25  1  0  0  0  0 
M  END
> <SMILES>
CCCCC[C@H](O)C=C[C@H]1[C@H](O)CC(=O)[C@@H]1CC=C/CCCC(=O)O

$$$$

  CDK     02041922272D

 43 45  0  0  0  0  0  0  0  0999 V2000
  -13.9500    3.1596    0.0000 C   0  0  0  0  0  0  0  0  0  0  0  0
  -12.4542    3.2719    0.0000 O   0  0  0  0  0  0  0  0  0  0  0  0
  -11.6090    2.0327    0.0000 C   0  0  0  0  0  0  0  0  0  0  0  0
  -10.1132    2.1448    0.0000 C   0  0  0  0  0  0  0  0  0  0  0  0
   -9.2682    0.9045    0.0000 C   0  0  0  0  0  0  0  0  0  0  0  0
   -9.9189   -0.4480    0.0000 C   0  0  0  0  0  0  0  0  0  0  0  0
  -11.4147   -0.5601    0.0000 C   0  0  0  0  0  0  0  0  0  0  0  0
  -12.0658   -1.9114    0.0000 O   0  0  0  0  0  0  0  0  0  0  0  0
  -13.5616   -2.0233    0.0000 C   0  0  0  0  0  0  0  0  0  0  0  0
  -12.2598    0.6803    0.0000 C   0  0  0  0  0  0  0  0  0  0  0  0
  -13.7556    0.5682    0.0000 O   0  0  0  0  0  0  0  0  0  0  0  0
  -14.6006    1.8075    0.0000 C   0  0  0  0  0  0  0  0  0  0  0  0
   -7.7724    1.0166    0.0000 C   0  0  0  0  0  0  0  0  0  0  0  0
   -7.1215    2.3680    0.0000 O   0  0  0  0  0  0  0  0  0  0  0  0
   -6.9274   -0.2228    0.0000 O   0  0  0  0  0  0  0  0  0  0  0  0
   -5.4316   -0.1107    0.0000 C   0  0  0  0  0  0  0  0  0  0  0  0
   -4.5866   -1.3501    0.0000 C   0  0  0  0  0  0  0  0  0  0  0  0
   -3.0908   -1.2380    0.0000 C   0  0  0  0  0  0  0  0  0  0  0  0
   -2.2458   -2.4773    0.0000 N   0  0  0  0  0  0  0  0  0  0  0  0
   -2.9958   -3.7764    0.0000 C   0  0  0  0  0  0  0  0  0  0  0  0
   -2.4478   -5.1727    0.0000 C   0  0  0  0  0  0  0  0  0  0  0  0
   -1.0145   -5.6148    0.0000 C   0  0  0  0  0  0  0  0  0  0  0  0
    0.2249   -4.7698    0.0000 N   0  0  0  0  0  0  0  0  0  0  0  0
    1.5239   -5.5198    0.0000 C   0  0  0  0  0  0  0  0  0  0  0  0
    2.8230   -4.7698    0.0000 C   0  0  0  0  0  0  0  0  0  0  0  0
    4.1220   -5.5198    0.0000 C   0  0  0  0  0  0  0  0  0  0  0  0
    5.4211   -4.7698    0.0000 O   0  0  0  0  0  0  0  0  0  0  0  0
    6.7201   -5.5198    0.0000 C   0  0  0  0  0  0  0  0  0  0  0  0
    6.7201   -7.0198    0.0000 O   0  0  0  0  0  0  0  0  0  0  0  0
    8.0191   -4.7698    0.0000 C   0  0  0  0  0  0  0  0  0  0  0  0
    9.3187   -5.5207    0.0000 C   0  0  0  0  0  0  0  0  0  0  0  0
   10.6177   -4.7707    0.0000 C   0  0  0  0  0  0  0  0  0  0  0  0
   11.9169   -5.5205    0.0000 O   0  0  0  0  0  0  0  0  0  0  0  0
   13.2158   -4.7703    0.0000 C   0  0  0  0  0  0  0  0  0  0  0  0
   10.6172   -3.2698    0.0000 C   0  0  0  0  0  0  0  0  0  0  0  0
   11.9163   -2.5198    0.0000 O   0  0  0  0  0  0  0  0  0  0  0  0
   13.2153   -3.2698    0.0000 C   0  0  0  0  0  0  0  0  0  0  0  0
    9.3177   -2.5190    0.0000 C   0  0  0  0  0  0  0  0  0  0  0  0
    9.3179   -1.0190    0.0000 O   0  0  0  0  0  0  0  0  0  0  0  0
   10.6171   -0.2692    0.0000 C   0  0  0  0  0  0  0  0  0  0  0  0
    8.0187   -3.2690    0.0000 C   0  0  0  0  0  0  0  0  0  0  0  0
    0.3370   -3.2740    0.0000 C   0  0  0  0  0  0  0  0  0  0  0  0
   -0.7626   -2.2538    0.0000 C   0  0  0  0  0  0  0  0  0  0  0  0
  1  2  1  0  0  0  0 
  2  3  1  0  0  0  0 
  3  4  2  0  0  0  0 
  4  5  1  0  0  0  0 
  5  6  2  0  0  0  0 
  6  7  1  0  0  0  0 
  7  8  1  0  0  0  0 
  8  9  1  0  0  0  0 
  7 10  2  0  0  0  0 
  3 10  1  0  0  0  0 
 10 11  1  0  0  0  0 
 11 12  1  0  0  0  0 
  5 13  1  0  0  0  0 
 13 14  2  0  0  0  0 
 13 15  1  0  0  0  0 
 15 16  1  0  0  0  0 
 16 17  1  0  0  0  0 
 17 18  1  0  0  0  0 
 18 19  1  0  0  0  0 
 19 20  1  0  0  0  0 
 20 21  1  0  0  0  0 
 21 22  1  0  0  0  0 
 22 23  1  0  0  0  0 
 23 24  1  0  0  0  0 
 24 25  1  0  0  0  0 
 25 26  1  0  0  0  0 
 26 27  1  0  0  0  0 
 27 28  1  0  0  0  0 
 28 29  2  0  0  0  0 
 28 30  1  0  0  0  0 
 30 31  2  0  0  0  0 
 31 32  1  0  0  0  0 
 32 33  1  0  0  0  0 
 33 34  1  0  0  0  0 
 32 35  2  0  0  0  0 
 35 36  1  0  0  0  0 
 36 37  1  0  0  0  0 
 35 38  1  0  0  0  0 
 38 39  1  0  0  0  0 
 39 40  1  0  0  0  0 
 38 41  2  0  0  0  0 
 30 41  1  0  0  0  0 
 23 42  1  0  0  0  0 
 42 43  1  0  0  0  0 
 19 43  1  0  0  0  0 
M  END
> <SMILES>
COc1cc(cc(OC)c1OC)C(=O)OCCCN2CCCN(CCCOC(=O)c3cc(OC)c(OC)c(OC)c3)CC2

$$$$

  CDK     02041922272D

 19 19  0  0  0  0  0  0  0  0999 V2000
   -7.7951   -1.5010    0.0000 C   0  0  0  0  0  0  0  0  0  0  0  0
   -6.4962   -0.7508    0.0000 C   0  0  0  0  0  0  0  0  0  0  0  0
   -5.1970   -1.5006    0.0000 C   0  0  0  0  0  0  0  0  0  0  0  0
   -3.8981   -0.7504    0.0000 N   0  0  0  0  0  0  0  0  0  0  0  0
   -3.8983    0.7496    0.0000 C   0  0  0  0  0  0  0  0  0  0  0  0
   -5.1975    1.4994    0.0000 C   0  0  0  0  0  0  0  0  0  0  0  0
   -6.4964    0.7492    0.0000 C   0  0  0  0  0  0  0  0  0  0  0  0
   -2.5989   -1.5002    0.0000 S   0  0  0  0  0  0  0  0  0  0  0  0
   -3.5629   -2.6494    0.0000 O   0  0  0  0  0  0  0  0  0  0  0  0
   -1.6346   -2.6491    0.0000 O   0  0  0  0  0  0  0  0  0  0  0  0
   -1.3000   -0.7500    0.0000 C   0  0  0  0  0  0  0  0  0  0  0  0
   -1.3000    0.7500    0.0000 C   0  0  0  0  0  0  0  0  0  0  0  0
    0.0000    1.5000    0.0000 C   0  0  0  0  0  0  0  0  0  0  0  0
    1.3000    0.7500    0.0000 C   0  0  0  0  0  0  0  0  0  0  0  0
    1.3000   -0.7500    0.0000 C   0  0  0  0  0  0  0  0  0  0  0  0
    0.0000   -1.5000    0.0000 C   0  0  0  0  0  0  0  0  0  0  0  0
    2.5989    1.5002    0.0000 C   0  0  0  0  0  0  0  0  0  0  0  0
    2.5987    3.0002    0.0000 O   0  0  0  0  0  0  0  0  0  0  0  0
    3.8981    0.7504    0.0000 O   0  0  0  0  0  0  0  0  0  0  0  0
  1  2  1  0  0  0  0 
  2  3  1  0  0  0  0 
  3  4  1  0  0  0  0 
  4  5  1  0  0  0  0 
  5  6  1  0  0  0  0 
  6  7  1  0  0  0  0 
  4  8  1  0  0  0  0 
  8  9  2  0  0  0  0 
  8 10  2  0  0  0  0 
  8 11  1  0  0  0  0 
 11 12  2  0  0  0  0 
 12 13  1  0  0  0  0 
 13 14  2  0  0  0  0 
 14 15  1  0  0  0  0 
 15 16  2  0  0  0  0 
 11 16  1  0  0  0  0 
 14 17  1  0  0  0  0 
 17 18  2  0  0  0  0 
 17 19  1  0  0  0  0 
M  END
> <SMILES>
CCCN(CCC)S(=O)(=O)c1ccc(cc1)C(=O)O

$$$$

  CDK     02041922272D

 29 32  0  0  0  0  0  0  0  0999 V2000
    0.4071    5.7800    0.0000 O   0  5  0  0  0  0  0  0  0  0  0  0
    1.0166    4.4094    0.0000 S   0  3  0  0  0  0  0  0  0  0  0  0
    0.1343    3.1963    0.0000 C   0  0  0  0  0  0  0  0  0  0  0  0
   -1.3574    3.3537    0.0000 C   0  0  0  0  0  0  0  0  0  0  0  0
   -2.2396    2.1406    0.0000 C   0  0  0  0  0  0  0  0  0  0  0  0
   -1.7796    0.7206    0.0000 C   0  0  0  0  0  0  0  0  0  0  0  0
   -0.3518    0.2606    0.0000 O   0  0  0  0  0  0  0  0  0  0  0  0
   -2.9896   -0.1694    0.0000 N   0  0  0  0  0  0  0  0  0  0  0  0
   -4.1996    0.7206    0.0000 N   0  0  0  0  0  0  0  0  0  0  0  0
   -3.7396    2.1406    0.0000 C   0  0  0  0  0  0  0  0  0  0  0  0
   -4.6218    3.3537    0.0000 O   0  0  0  0  0  0  0  0  0  0  0  0
   -5.6273    0.2606    0.0000 C   0  0  0  0  0  0  0  0  0  0  0  0
   -6.7398    1.2680    0.0000 C   0  0  0  0  0  0  0  0  0  0  0  0
   -8.1676    0.8080    0.0000 C   0  0  0  0  0  0  0  0  0  0  0  0
   -8.4828   -0.6593    0.0000 C   0  0  0  0  0  0  0  0  0  0  0  0
   -7.3703   -1.6667    0.0000 C   0  0  0  0  0  0  0  0  0  0  0  0
   -5.9425   -1.2067    0.0000 C   0  0  0  0  0  0  0  0  0  0  0  0
   -2.9896   -1.6694    0.0000 C   0  0  0  0  0  0  0  0  0  0  0  0
   -4.2896   -2.4194    0.0000 C   0  0  0  0  0  0  0  0  0  0  0  0
   -4.2896   -3.9194    0.0000 C   0  0  0  0  0  0  0  0  0  0  0  0
   -2.9896   -4.6694    0.0000 C   0  0  0  0  0  0  0  0  0  0  0  0
   -1.6896   -3.9194    0.0000 C   0  0  0  0  0  0  0  0  0  0  0  0
   -1.6896   -2.4194    0.0000 C   0  0  0  0  0  0  0  0  0  0  0  0
    2.5083    4.2520    0.0000 C   0  0  0  0  0  0  0  0  0  0  0  0
    3.3907    5.4650    0.0000 C   0  0  0  0  0  0  0  0  0  0  0  0
    4.8831    5.3067    0.0000 C   0  0  0  0  0  0  0  0  0  0  0  0
    5.4932    3.9354    0.0000 C   0  0  0  0  0  0  0  0  0  0  0  0
    4.6108    2.7225    0.0000 C   0  0  0  0  0  0  0  0  0  0  0  0
    3.1183    2.8807    0.0000 C   0  0  0  0  0  0  0  0  0  0  0  0
  1  2  1  0  0  0  0 
  2  3  1  0  0  0  0 
  3  4  1  0  0  0  0 
  4  5  1  0  0  0  0 
  5  6  1  0  0  0  0 
  6  7  2  0  0  0  0 
  6  8  1  0  0  0  0 
  8  9  1  0  0  0  0 
  9 10  1  0  0  0  0 
  5 10  1  0  0  0  0 
 10 11  2  0  0  0  0 
  9 12  1  0  0  0  0 
 12 13  2  0  0  0  0 
 13 14  1  0  0  0  0 
 14 15  2  0  0  0  0 
 15 16  1  0  0  0  0 
 16 17  2  0  0  0  0 
 12 17  1  0  0  0  0 
  8 18  1  0  0  0  0 
 18 19  2  0  0  0  0 
 19 20  1  0  0  0  0 
 20 21  2  0  0  0  0 
 21 22  1  0  0  0  0 
 22 23  2  0  0  0  0 
 18 23  1  0  0  0  0 
  2 24  1  0  0  0  0 
 24 25  2  0  0  0  0 
 25 26  1  0  0  0  0 
 26 27  2  0  0  0  0 
 27 28  1  0  0  0  0 
 28 29  2  0  0  0  0 
 24 29  1  0  0  0  0 
M  CHG  1   1  -1
M  CHG  1   2   1
M  END
> <SMILES>
[O-][S+](CCC1C(=O)N(N(C1=O)c2ccccc2)c3ccccc3)c4ccccc4

$$$$

  CDK     02041922272D

 30 33  0  0  0  0  0  0  0  0999 V2000
   -6.0281   -2.5104    0.0000 C   0  0  0  0  0  0  0  0  0  0  0  0
   -4.7289   -3.2602    0.0000 O   0  0  0  0  0  0  0  0  0  0  0  0
   -3.4300   -2.5100    0.0000 C   0  0  0  0  0  0  0  0  0  0  0  0
   -2.1300   -3.2600    0.0000 C   0  0  0  0  0  0  0  0  0  0  0  0
   -0.8300   -2.5100    0.0000 C   0  0  0  0  0  0  0  0  0  0  0  0
    0.4600   -3.2600    0.0000 C   0  0  0  0  0  0  0  0  0  0  0  0
    1.7600   -2.5100    0.0000 C   0  0  0  0  0  0  0  0  0  0  0  0
    1.7600   -1.0100    0.0000 N   0  0  0  0  0  0  0  0  0  0  0  0
    3.0600   -0.2600    0.0000 C   0  0  0  0  0  0  0  0  0  0  0  0
    4.3589   -1.0102    0.0000 O   0  0  0  0  0  0  0  0  0  0  0  0
    3.0600    1.2400    0.0000 N   0  0  0  0  0  0  0  0  0  0  0  0
    4.3589    1.9902    0.0000 C   0  0  0  0  0  0  0  0  0  0  0  0
    1.7600    1.9900    0.0000 C   0  0  0  0  0  0  0  0  0  0  0  0
    1.7600    4.4500    0.0000 N   0  0  0  0  0  0  0  0  0  0  0  0
    3.0590    5.2000    0.0000 C   0  0  0  0  0  0  0  0  0  0  0  0
    3.0593    6.7008    0.0000 C   0  0  0  0  0  0  0  0  0  0  0  0
    1.7601    7.4506    0.0000 C   0  0  0  0  0  0  0  0  0  0  0  0
    4.3587    7.4519    0.0000 C   0  0  0  0  0  0  0  0  0  0  0  0
    5.6578    6.7021    0.0000 C   0  0  0  0  0  0  0  0  0  0  0  0
    6.9569    7.4521    0.0000 C   0  0  0  0  0  0  0  0  0  0  0  0
    5.6576    5.2012    0.0000 C   0  0  0  0  0  0  0  0  0  0  0  0
    4.3582    4.4502    0.0000 C   0  0  0  0  0  0  0  0  0  0  0  0
    4.3587    2.9502    0.0000 C   0  0  0  0  0  0  0  0  0  0  0  0
    0.4600    1.2400    0.0000 C   0  0  0  0  0  0  0  0  0  0  0  0
    0.4600   -0.2600    0.0000 C   0  0  0  0  0  0  0  0  0  0  0  0
   -0.8300   -1.0100    0.0000 C   0  0  0  0  0  0  0  0  0  0  0  0
   -2.1300   -0.2600    0.0000 C   0  0  0  0  0  0  0  0  0  0  0  0
   -3.4300   -1.0100    0.0000 C   0  0  0  0  0  0  0  0  0  0  0  0
   -4.7289   -0.2598    0.0000 O   0  0  0  0  0  0  0  0  0  0  0  0
   -6.0281   -1.0096    0.0000 C   0  0  0  0  0  0  0  0  0  0  0  0
  1  2  1  0  0  0  0 
  2  3  1  0  0  0  0 
  3  4  2  0  0  0  0 
  4  5  1  0  0  0  0 
  5  6  1  0  0  0  0 
  6  7  1  0  0  0  0 
  7  8  1  0  0  0  0 
  8  9  1  0  0  0  0 
  9 10  2  0  0  0  0 
  9 11  1  0  0  0  0 
 11 12  1  0  0  0  0 
 11 13  1  4  0  0  0 
 13 14  2  0  0  0  0 
 14 15  1  0  0  0  0 
 15 16  2  0  0  0  0 
 16 17  1  0  0  0  0 
 16 18  1  0  0  0  0 
 18 19  2  0  0  0  0 
 19 20  1  0  0  0  0 
 19 21  1  0  0  0  0 
 21 22  2  0  0  0  0 
 15 22  1  0  0  0  0 
 22 23  1  0  0  0  0 
 13 24  1  0  0  0  0 
 24 25  2  0  0  0  0 
  8 25  1  0  0  0  0 
 25 26  1  0  0  0  0 
  5 26  2  0  0  0  0 
 26 27  1  0  0  0  0 
 27 28  2  0  0  0  0 
  3 28  1  0  0  0  0 
 28 29  1  0  0  0  0 
 29 30  1  0  0  0  0 
M  END
> <SMILES>
COc1cc2CCN3C(=O)N(C)C(=Nc4c(C)cc(C)cc4C)C=C3c2cc1OC

$$$$

  CDK     02041922272D

 25 25  0  0  1  0  0  0  0  0999 V2000
   -7.8039   -2.5302    0.0000 C   0  0  0  0  0  0  0  0  0  0  0  0
   -6.3115   -2.6813    0.0000 C   0  0  0  0  0  0  0  0  0  0  0  0
   -5.4345   -1.4645    0.0000 C   0  0  0  0  0  0  0  0  0  0  0  0
   -3.9421   -1.6156    0.0000 C   0  0  0  0  0  0  0  0  0  0  0  0
   -3.0651   -0.3987    0.0000 C   0  0  0  0  0  0  0  0  0  0  0  0
   -1.5727   -0.5498    0.0000 C   0  0  2  0  0  0  0  0  0  0  0  0
   -0.9574   -1.9178    0.0000 O   0  0  0  0  0  0  0  0  0  0  0  0
   -0.6956    0.6670    0.0000 C   0  0  0  0  0  0  0  0  0  0  0  0
    0.7967    0.5159    0.0000 C   0  0  0  0  0  0  0  0  0  0  0  0
    1.6738    1.7327    0.0000 C   0  0  1  0  0  0  0  0  0  0  0  0
    1.2038    3.1427    0.0000 C   0  0  2  0  0  0  0  0  0  0  0  0
   -0.2271    3.5928    0.0000 O   0  0  0  0  0  0  0  0  0  0  0  0
    2.4138    4.0427    0.0000 C   0  0  0  0  0  0  0  0  0  0  0  0
    3.6438    3.1627    0.0000 C   0  0  2  0  0  0  0  0  0  0  0  0
    5.0695    3.6291    0.0000 O   0  0  0  0  0  0  0  0  0  0  0  0
    3.1738    1.7327    0.0000 C   0  0  2  0  0  0  0  0  0  0  0  0
    4.0534    0.5177    0.0000 C   0  0  0  0  0  0  0  0  0  0  0  0
    5.5455    0.6720    0.0000 C   0  0  0  0  0  0  0  0  0  0  0  0
    6.4251   -0.5430    0.0000 C   0  0  0  0  0  0  0  0  0  0  0  0
    7.9171   -0.3888    0.0000 C   0  0  0  0  0  0  0  0  0  0  0  0
    8.7968   -1.6038    0.0000 C   0  0  0  0  0  0  0  0  0  0  0  0
   10.2888   -1.4495    0.0000 C   0  0  0  0  0  0  0  0  0  0  0  0
   11.1684   -2.6645    0.0000 C   0  0  0  0  0  0  0  0  0  0  0  0
   10.5560   -4.0338    0.0000 O   0  0  0  0  0  0  0  0  0  0  0  0
   12.6605   -2.5103    0.0000 O   0  0  0  0  0  0  0  0  0  0  0  0
  1  2  1  0  0  0  0 
  2  3  1  0  0  0  0 
  3  4  1  0  0  0  0 
  4  5  1  0  0  0  0 
  5  6  1  0  0  0  0 
  6  7  1  1  0  0  0 
  6  8  1  0  0  0  0 
  8  9  2  3  0  0  0 
 10  9  1  1  0  0  0 
 10 11  1  0  0  0  0 
 11 12  1  6  0  0  0 
 11 13  1  0  0  0  0 
 13 14  1  0  0  0  0 
 14 15  1  6  0  0  0 
 14 16  1  0  0  0  0 
 10 16  1  0  0  0  0 
 16 17  1  6  0  0  0 
 17 18  1  4  0  0  0 
 18 19  2  0  0  0  0 
 19 20  1  0  0  0  0 
 20 21  1  0  0  0  0 
 21 22  1  0  0  0  0 
 22 23  1  0  0  0  0 
 23 24  2  0  0  0  0 
 23 25  1  0  0  0  0 
M  END
> <SMILES>
CCCCC[C@H](O)C=C[C@H]1[C@H](O)C[C@H](O)[C@@H]1CC=C/CCCC(=O)O

$$$$

  CDK     02041922272D

 25 25  0  0  1  0  0  0  0  0999 V2000
   -7.8039   -2.5302    0.0000 C   0  0  0  0  0  0  0  0  0  0  0  0
   -6.3115   -2.6813    0.0000 C   0  0  0  0  0  0  0  0  0  0  0  0
   -5.4345   -1.4645    0.0000 C   0  0  0  0  0  0  0  0  0  0  0  0
   -3.9421   -1.6156    0.0000 C   0  0  0  0  0  0  0  0  0  0  0  0
   -3.0651   -0.3987    0.0000 C   0  0  0  0  0  0  0  0  0  0  0  0
   -1.5727   -0.5498    0.0000 C   0  0  2  0  0  0  0  0  0  0  0  0
   -0.9574   -1.9178    0.0000 O   0  0  0  0  0  0  0  0  0  0  0  0
   -0.6956    0.6670    0.0000 C   0  0  0  0  0  0  0  0  0  0  0  0
    0.7967    0.5159    0.0000 C   0  0  0  0  0  0  0  0  0  0  0  0
    1.6738    1.7327    0.0000 C   0  0  1  0  0  0  0  0  0  0  0  0
    1.2038    3.1427    0.0000 C   0  0  2  0  0  0  0  0  0  0  0  0
   -0.2271    3.5928    0.0000 O   0  0  0  0  0  0  0  0  0  0  0  0
    2.4138    4.0427    0.0000 C   0  0  0  0  0  0  0  0  0  0  0  0
    3.6438    3.1627    0.0000 C   0  0  0  0  0  0  0  0  0  0  0  0
    5.0695    3.6291    0.0000 O   0  0  0  0  0  0  0  0  0  0  0  0
    3.1738    1.7327    0.0000 C   0  0  2  0  0  0  0  0  0  0  0  0
    4.0534    0.5177    0.0000 C   0  0  0  0  0  0  0  0  0  0  0  0
    5.5455    0.6720    0.0000 C   0  0  0  0  0  0  0  0  0  0  0  0
    6.4251   -0.5430    0.0000 C   0  0  0  0  0  0  0  0  0  0  0  0
    7.9171   -0.3888    0.0000 C   0  0  0  0  0  0  0  0  0  0  0  0
    8.7968   -1.6038    0.0000 C   0  0  0  0  0  0  0  0  0  0  0  0
   10.2888   -1.4495    0.0000 C   0  0  0  0  0  0  0  0  0  0  0  0
   11.1684   -2.6645    0.0000 C   0  0  0  0  0  0  0  0  0  0  0  0
   10.5560   -4.0338    0.0000 O   0  0  0  0  0  0  0  0  0  0  0  0
   12.6605   -2.5103    0.0000 O   0  0  0  0  0  0  0  0  0  0  0  0
  1  2  1  0  0  0  0 
  2  3  1  0  0  0  0 
  3  4  1  0  0  0  0 
  4  5  1  0  0  0  0 
  5  6  1  0  0  0  0 
  6  7  1  1  0  0  0 
  6  8  1  0  0  0  0 
  8  9  2  3  0  0  0 
 10  9  1  1  0  0  0 
 10 11  1  0  0  0  0 
 11 12  1  6  0  0  0 
 11 13  1  0  0  0  0 
 13 14  1  0  0  0  0 
 14 15  2  0  0  0  0 
 14 16  1  0  0  0  0 
 10 16  1  0  0  0  0 
 16 17  1  6  0  0  0 
 17 18  1  0  0  0  0 
 18 19  1  0  0  0  0 
 19 20  1  0  0  0  0 
 20 21  1  0  0  0  0 
 21 22  1  0  0  0  0 
 22 23  1  0  0  0  0 
 23 24  2  0  0  0  0 
 23 25  1  0  0  0  0 
M  END
> <SMILES>
CCCCC[C@H](O)C=C[C@H]1[C@H](O)CC(=O)[C@@H]1CCCCCCC(=O)O

$$$$

  CDK     02041922272D

 20 19  0  0  1  0  0  0  0  0999 V2000
   12.9904    1.5000    0.0000 N   0  0  0  0  0  0  0  0  0  0  0  0
   12.9904   -0.0000    0.0000 C   0  0  1  0  0  0  0  0  0  0  0  0
   11.6913   -0.7500    0.0000 C   0  0  0  0  0  0  0  0  0  0  0  0
   10.3923   -0.0000    0.0000 C   0  0  0  0  0  0  0  0  0  0  0  0
    9.0933   -0.7500    0.0000 C   0  0  0  0  0  0  0  0  0  0  0  0
    9.0933   -2.2500    0.0000 O   0  0  0  0  0  0  0  0  0  0  0  0
    7.7942   -0.0000    0.0000 N   0  0  0  0  0  0  0  0  0  0  0  0
    6.4952   -0.7500    0.0000 C   0  0  1  0  0  0  0  0  0  0  0  0
    6.4952   -2.2500    0.0000 C   0  0  0  0  0  0  0  0  0  0  0  0
    5.1962   -3.0000    0.0000 S   0  0  0  0  0  0  0  0  0  0  0  0
    5.1962   -0.0000    0.0000 C   0  0  0  0  0  0  0  0  0  0  0  0
    5.1962    1.5000    0.0000 O   0  0  0  0  0  0  0  0  0  0  0  0
    3.8971   -0.7500    0.0000 N   0  0  0  0  0  0  0  0  0  0  0  0
    2.5981   -0.0000    0.0000 C   0  0  0  0  0  0  0  0  0  0  0  0
    1.2990   -0.7500    0.0000 C   0  0  0  0  0  0  0  0  0  0  0  0
    0.0000    0.0000    0.0000 O   0  0  0  0  0  0  0  0  0  0  0  0
    1.2990   -2.2500    0.0000 O   0  0  0  0  0  0  0  0  0  0  0  0
   14.2894   -0.7500    0.0000 C   0  0  0  0  0  0  0  0  0  0  0  0
   15.5885   -0.0000    0.0000 O   0  0  0  0  0  0  0  0  0  0  0  0
   14.2894   -2.2500    0.0000 O   0  0  0  0  0  0  0  0  0  0  0  0
  2  1  1  6  0  0  0 
  2  3  1  0  0  0  0 
  3  4  1  0  0  0  0 
  4  5  1  0  0  0  0 
  5  6  2  0  0  0  0 
  5  7  1  0  0  0  0 
  8  7  1  1  0  0  0 
  8  9  1  0  0  0  0 
  9 10  1  0  0  0  0 
  8 11  1  0  0  0  0 
 11 12  2  0  0  0  0 
 11 13  1  0  0  0  0 
 13 14  1  0  0  0  0 
 14 15  1  0  0  0  0 
 15 16  1  0  0  0  0 
 15 17  2  0  0  0  0 
  2 18  1  0  0  0  0 
 18 19  1  0  0  0  0 
 18 20  2  0  0  0  0 
M  END
> <SMILES>
N[C@@H](CCC(=O)N[C@@H](CS)C(=O)NCC(O)=O)C(O)=O

$$$$

  CDK     02041922272D

 33 36  0  0  0  0  0  0  0  0999 V2000
    4.1182   -4.3721    0.0000 C   0  0  0  0  0  0  0  0  0  0  0  0
    3.6529   -2.9461    0.0000 C   0  0  0  0  0  0  0  0  0  0  0  0
    2.1853   -2.6360    0.0000 C   0  0  0  0  0  0  0  0  0  0  0  0
    1.7200   -1.2100    0.0000 C   0  0  0  0  0  0  0  0  0  0  0  0
    2.6000    0.0000    0.0000 N   0  0  0  0  0  0  0  0  0  0  0  0
    1.7200    1.2200    0.0000 N   0  0  0  0  0  0  0  0  0  0  0  0
    2.1836    2.6466    0.0000 C   0  0  0  0  0  0  0  0  0  0  0  0
    0.2900    0.7500    0.0000 C   0  0  0  0  0  0  0  0  0  0  0  0
    0.2900   -0.7500    0.0000 C   0  0  0  0  0  0  0  0  0  0  0  0
   -1.0000   -1.5000    0.0000 N   0  0  0  0  0  0  0  0  0  0  0  0
   -2.3100   -0.7500    0.0000 C   0  0  0  0  0  0  0  0  0  0  0  0
   -2.3100    0.7500    0.0000 N   0  0  0  0  0  0  0  0  0  0  0  0
   -1.0100    1.5000    0.0000 C   0  0  0  0  0  0  0  0  0  0  0  0
   -1.0100    3.0000    0.0000 O   0  0  0  0  0  0  0  0  0  0  0  0
   -3.6077   -1.5024    0.0000 C   0  0  0  0  0  0  0  0  0  0  0  0
   -3.6052   -3.0032    0.0000 C   0  0  0  0  0  0  0  0  0  0  0  0
   -2.3047   -3.7506    0.0000 O   0  0  0  0  0  0  0  0  0  0  0  0
   -2.3017   -5.2506    0.0000 C   0  0  0  0  0  0  0  0  0  0  0  0
   -3.5993   -6.0032    0.0000 C   0  0  0  0  0  0  0  0  0  0  0  0
   -4.9032   -3.7566    0.0000 C   0  0  0  0  0  0  0  0  0  0  0  0
   -6.2037   -3.0092    0.0000 C   0  0  0  0  0  0  0  0  0  0  0  0
   -6.2062   -1.5083    0.0000 C   0  0  0  0  0  0  0  0  0  0  0  0
   -4.9082   -0.7549    0.0000 C   0  0  0  0  0  0  0  0  0  0  0  0
   -7.5067   -0.7609    0.0000 S   0  0  0  0  0  0  0  0  0  0  0  0
   -6.5448    0.3901    0.0000 O   0  0  0  0  0  0  0  0  0  0  0  0
   -8.4732    0.3863    0.0000 O   0  0  0  0  0  0  0  0  0  0  0  0
   -8.8043   -1.5135    0.0000 N   0  0  0  0  0  0  0  0  0  0  0  0
   -8.8008   -3.0143    0.0000 C   0  0  0  0  0  0  0  0  0  0  0  0
  -10.0984   -3.7669    0.0000 C   0  0  0  0  0  0  0  0  0  0  0  0
  -11.3994   -3.0186    0.0000 N   0  0  0  0  0  0  0  0  0  0  0  0
  -12.6970   -3.7712    0.0000 C   0  0  0  0  0  0  0  0  0  0  0  0
  -11.4028   -1.5178    0.0000 C   0  0  0  0  0  0  0  0  0  0  0  0
  -10.1053   -0.7652    0.0000 C   0  0  0  0  0  0  0  0  0  0  0  0
  1  2  1  0  0  0  0 
  2  3  1  0  0  0  0 
  3  4  1  0  0  0  0 
  4  5  2  0  0  0  0 
  5  6  1  0  0  0  0 
  6  7  1  0  0  0  0 
  6  8  1  0  0  0  0 
  8  9  2  0  0  0  0 
  4  9  1  0  0  0  0 
  9 10  1  0  0  0  0 
 10 11  1  0  0  0  0 
 11 12  2  0  0  0  0 
 12 13  1  0  0  0  0 
  8 13  1  0  0  0  0 
 13 14  2  0  0  0  0 
 11 15  1  0  0  0  0 
 15 16  2  0  0  0  0 
 16 17  1  0  0  0  0 
 17 18  1  0  0  0  0 
 18 19  1  0  0  0  0 
 16 20  1  0  0  0  0 
 20 21  2  0  0  0  0 
 21 22  1  0  0  0  0 
 22 23  2  0  0  0  0 
 15 23  1  0  0  0  0 
 22 24  1  0  0  0  0 
 24 25  2  0  0  0  0 
 24 26  2  0  0  0  0 
 24 27  1  0  0  0  0 
 27 28  1  0  0  0  0 
 28 29  1  0  0  0  0 
 29 30  1  0  0  0  0 
 30 31  1  0  0  0  0 
 30 32  1  0  0  0  0 
 32 33  1  0  0  0  0 
 27 33  1  0  0  0  0 
M  END
> <SMILES>
CCCC1=NN(C)C2=C1NC(=NC2=O)C1=C(OCC)C=CC(=C1)S(=O)(=O)N1CCN(C)CC1

$$$$

  CDK     02041922272D

 19 20  0  0  1  0  0  0  0  0999 V2000
   -5.3075    3.0646    0.0000 C   0  0  0  0  0  0  0  0  0  0  0  0
   -4.0084    2.3148    0.0000 C   0  0  0  0  0  0  0  0  0  0  0  0
   -2.7093    3.0648    0.0000 C   0  0  0  0  0  0  0  0  0  0  0  0
   -1.4098    2.3140    0.0000 N   0  0  0  0  0  0  0  0  0  0  0  0
   -0.1108    3.0640    0.0000 C   0  0  1  0  0  0  0  0  0  0  0  0
    1.2508    2.4523    0.0000 C   0  0  0  0  0  0  0  0  0  0  0  0
    2.2572    3.5645    0.0000 C   0  0  2  0  0  0  0  0  0  0  0  0
    3.7487    3.4046    0.0000 N   0  0  0  0  0  0  0  0  0  0  0  0
    4.6328    4.6163    0.0000 N   0  3  0  0  0  0  0  0  0  0  0  0
    5.5170    5.8281    0.0000 N   0  5  0  0  0  0  0  0  0  0  0  0
    1.5130    4.8583    0.0000 C   0  0  1  0  0  0  0  0  0  0  0  0
    2.1299    6.2256    0.0000 C   0  0  0  0  0  0  0  0  0  0  0  0
    3.6224    6.3750    0.0000 O   0  0  0  0  0  0  0  0  0  0  0  0
    0.0412    4.5583    0.0000 O   0  0  0  0  0  0  0  0  0  0  0  0
   -1.4093    0.8131    0.0000 C   0  0  0  0  0  0  0  0  0  0  0  0
   -0.1102    0.0633    0.0000 O   0  0  0  0  0  0  0  0  0  0  0  0
   -2.7084    0.0631    0.0000 N   0  0  0  0  0  0  0  0  0  0  0  0
   -4.0079    0.8140    0.0000 C   0  0  0  0  0  0  0  0  0  0  0  0
   -5.3069    0.0640    0.0000 O   0  0  0  0  0  0  0  0  0  0  0  0
  1  2  1  0  0  0  0 
  2  3  2  0  0  0  0 
  3  4  1  0  0  0  0 
  5  4  1  6  0  0  0 
  5  6  1  0  0  0  0 
  6  7  1  0  0  0  0 
  7  8  1  1  0  0  0 
  8  9  2  0  0  0  0 
  9 10  2  0  0  0  0 
  7 11  1  0  0  0  0 
 11 12  1  6  0  0  0 
 12 13  1  0  0  0  0 
 11 14  1  0  0  0  0 
  5 14  1  0  0  0  0 
  4 15  1  0  0  0  0 
 15 16  2  0  0  0  0 
 15 17  1  0  0  0  0 
 17 18  1  0  0  0  0 
  2 18  1  0  0  0  0 
 18 19  2  0  0  0  0 
M  CHG  1   9   1
M  CHG  1  10  -1
M  END
> <SMILES>
CC1=CN([C@H]2C[C@H](N=[N+]=[N-])[C@@H](CO)O2)C(=O)NC1=O

$$$$

  CDK     02041922272D

  5  4  0  0  0  0  0  0  0  0999 V2000
    0.6488    0.5223    0.0000 N   0  0  0  0  0  0  0  0  0  0  0  0
    1.3988   -0.7767    0.0000 Pt  0  0  0  0  0  0  0  0  0  0  0  0
    2.8988   -0.7767    0.0000 N   0  0  0  0  0  0  0  0  0  0  0  0
   -0.0107   -1.2898    0.0000 Cl  0  0  0  0  0  0  0  0  0  0  0  0
    1.6593   -2.2539    0.0000 Cl  0  0  0  0  0  0  0  0  0  0  0  0
  1  2  1  0  0  0  0 
  2  3  1  0  0  0  0 
  2  4  1  0  0  0  0 
  2  5  1  0  0  0  0 
M  END
> <SMILES>
N[Pt](N)(Cl)Cl

$$$$

  CDK     02041922272D

  9  9  0  0  0  0  0  0  0  0999 V2000
    2.5989    0.0004    0.0000 F   0  0  0  0  0  0  0  0  0  0  0  0
    1.3000   -0.7498    0.0000 C   0  0  0  0  0  0  0  0  0  0  0  0
    1.3000   -2.2498    0.0000 C   0  0  0  0  0  0  0  0  0  0  0  0
   -0.0000   -2.9998    0.0000 N   0  0  0  0  0  0  0  0  0  0  0  0
   -1.3000   -2.2498    0.0000 C   0  0  0  0  0  0  0  0  0  0  0  0
   -2.5989   -3.0000    0.0000 O   0  0  0  0  0  0  0  0  0  0  0  0
   -1.3000   -0.7498    0.0000 N   0  0  0  0  0  0  0  0  0  0  0  0
    0.0000    0.0002    0.0000 C   0  0  0  0  0  0  0  0  0  0  0  0
    0.0000    1.5002    0.0000 O   0  0  0  0  0  0  0  0  0  0  0  0
  1  2  1  0  0  0  0 
  2  3  2  0  0  0  0 
  3  4  1  0  0  0  0 
  4  5  1  0  0  0  0 
  5  6  2  0  0  0  0 
  5  7  1  0  0  0  0 
  7  8  1  0  0  0  0 
  2  8  1  0  0  0  0 
  8  9  2  0  0  0  0 
M  END
> <SMILES>
FC1=CNC(=O)NC1=O

$$$$

  CDK     02041922272D

 34 35  0  0  0  0  0  0  0  0999 V2000
   12.1251   10.9487    0.0000 C   0  0  0  0  0  0  0  0  0  0  0  0
   11.6120    9.5392    0.0000 C   0  0  0  0  0  0  0  0  0  0  0  0
   11.6118    8.0392    0.0000 C   0  0  0  0  0  0  0  0  0  0  0  0
   13.0891    9.2786    0.0000 C   0  0  0  0  0  0  0  0  0  0  0  0
   10.1347    9.2788    0.0000 C   0  0  0  0  0  0  0  0  0  0  0  0
    9.1706   10.4280    0.0000 O   0  0  0  0  0  0  0  0  0  0  0  0
    9.6216    7.8693    0.0000 O   0  0  0  0  0  0  0  0  0  0  0  0
    8.1443    7.6090    0.0000 C   0  0  0  0  0  0  0  0  0  0  0  0
    7.6312    6.1995    0.0000 O   0  0  0  0  0  0  0  0  0  0  0  0
    6.1539    5.9392    0.0000 P   0  0  0  0  0  0  0  0  0  0  0  0
    6.1541    7.4392    0.0000 O   0  0  0  0  0  0  0  0  0  0  0  0
    5.6408    4.5297    0.0000 C   0  0  0  0  0  0  0  0  0  0  0  0
    4.1635    4.2693    0.0000 O   0  0  0  0  0  0  0  0  0  0  0  0
    3.6504    2.8598    0.0000 C   0  0  0  0  0  0  0  0  0  0  0  0
    2.1732    2.5995    0.0000 C   0  0  0  0  0  0  0  0  0  0  0  0
    1.6600    1.1900    0.0000 N   0  0  0  0  0  0  0  0  0  0  0  0
    2.5100   -0.0300    0.0000 C   0  0  0  0  0  0  0  0  0  0  0  0
    1.6000   -1.2200    0.0000 N   0  0  0  0  0  0  0  0  0  0  0  0
    0.1800   -0.7400    0.0000 C   0  0  0  0  0  0  0  0  0  0  0  0
   -1.1600   -1.4100    0.0000 C   0  0  0  0  0  0  0  0  0  0  0  0
   -1.2158   -2.9090    0.0000 N   0  0  0  0  0  0  0  0  0  0  0  0
   -2.4000   -0.6700    0.0000 N   0  0  0  0  0  0  0  0  0  0  0  0
   -2.3600    0.8500    0.0000 C   0  0  0  0  0  0  0  0  0  0  0  0
   -1.1000    1.5500    0.0000 N   0  0  0  0  0  0  0  0  0  0  0  0
    0.1800    0.7900    0.0000 C   0  0  0  0  0  0  0  0  0  0  0  0
    4.6768    6.1998    0.0000 O   0  0  0  0  0  0  0  0  0  0  0  0
    4.1638    7.6093    0.0000 C   0  0  0  0  0  0  0  0  0  0  0  0
    5.1281    8.7583    0.0000 O   0  0  0  0  0  0  0  0  0  0  0  0
    4.6152   10.1679    0.0000 C   0  0  0  0  0  0  0  0  0  0  0  0
    3.1380   10.4285    0.0000 O   0  0  0  0  0  0  0  0  0  0  0  0
    5.5795   11.3169    0.0000 C   0  0  0  0  0  0  0  0  0  0  0  0
    5.0666   12.7265    0.0000 C   0  0  0  0  0  0  0  0  0  0  0  0
    6.5436   10.1677    0.0000 C   0  0  0  0  0  0  0  0  0  0  0  0
    6.8786   12.0668    0.0000 C   0  0  0  0  0  0  0  0  0  0  0  0
  1  2  1  0  0  0  0 
  2  3  1  0  0  0  0 
  2  4  1  0  0  0  0 
  2  5  1  0  0  0  0 
  5  6  2  0  0  0  0 
  5  7  1  0  0  0  0 
  7  8  1  0  0  0  0 
  8  9  1  0  0  0  0 
  9 10  1  0  0  0  0 
 10 11  2  0  0  0  0 
 10 12  1  0  0  0  0 
 12 13  1  0  0  0  0 
 13 14  1  0  0  0  0 
 14 15  1  0  0  0  0 
 15 16  1  0  0  0  0 
 16 17  1  0  0  0  0 
 17 18  2  0  0  0  0 
 18 19  1  0  0  0  0 
 19 20  2  0  0  0  0 
 20 21  1  0  0  0  0 
 20 22  1  0  0  0  0 
 22 23  2  0  0  0  0 
 23 24  1  0  0  0  0 
 24 25  2  0  0  0  0 
 16 25  1  0  0  0  0 
 19 25  1  0  0  0  0 
 10 26  1  0  0  0  0 
 26 27  1  0  0  0  0 
 27 28  1  0  0  0  0 
 28 29  1  0  0  0  0 
 29 30  2  0  0  0  0 
 29 31  1  0  0  0  0 
 31 32  1  0  0  0  0 
 31 33  1  0  0  0  0 
 31 34  1  0  0  0  0 
M  END
> <SMILES>
CC(C)(C)C(=O)OCOP(=O)(COCCN1C=NC2=C(N)N=CN=C12)OCOC(=O)C(C)(C)C

$$$$

  CDK     02041922272D

 10 11  0  0  0  0  0  0  0  0999 V2000
   -0.9100    2.7000    0.0000 S   0  0  0  0  0  0  0  0  0  0  0  0
   -0.9100    1.2000    0.0000 C   0  0  0  0  0  0  0  0  0  0  0  0
   -2.2100    0.4500    0.0000 N   0  0  0  0  0  0  0  0  0  0  0  0
   -2.2100   -1.0500    0.0000 C   0  0  0  0  0  0  0  0  0  0  0  0
   -0.9100   -1.8000    0.0000 N   0  0  0  0  0  0  0  0  0  0  0  0
    0.3900   -1.0500    0.0000 C   0  0  0  0  0  0  0  0  0  0  0  0
    0.3900    0.4500    0.0000 C   0  0  0  0  0  0  0  0  0  0  0  0
    1.8200    0.9100    0.0000 N   0  0  0  0  0  0  0  0  0  0  0  0
    2.7000   -0.3000    0.0000 C   0  0  0  0  0  0  0  0  0  0  0  0
    1.8200   -1.5100    0.0000 N   0  0  0  0  0  0  0  0  0  0  0  0
  1  2  2  0  0  0  0 
  2  3  1  0  0  0  0 
  3  4  2  0  0  0  0 
  4  5  1  0  0  0  0 
  5  6  1  0  0  0  0 
  6  7  2  0  0  0  0 
  2  7  1  0  0  0  0 
  7  8  1  0  0  0  0 
  8  9  1  0  0  0  0 
  9 10  2  0  0  0  0 
  6 10  1  0  0  0  0 
M  END
> <SMILES>
S=C1N=CNC2=C1NC=N2

$$$$

  CDK     02041922272D

 59 63  0  0  1  0  0  0  0  0999 V2000
   -6.4602    4.9687    0.0000 C   0  0  0  0  0  0  0  0  0  0  0  0
   -4.9602    4.9689    0.0000 O   0  0  0  0  0  0  0  0  0  0  0  0
   -4.2100    3.6700    0.0000 C   0  0  1  0  0  0  0  0  0  0  0  0
   -4.9600    2.3700    0.0000 C   0  0  0  0  0  0  0  0  0  0  0  0
   -6.4600    2.3700    0.0000 C   0  0  0  0  0  0  0  0  0  0  0  0
   -7.2100    1.0700    0.0000 O   0  0  0  0  0  0  0  0  0  0  0  0
   -6.5840   -1.0154    0.0000 C   0  0  1  0  0  0  0  0  0  0  0  0
   -8.0547   -1.3107    0.0000 C   0  0  0  0  0  0  0  0  0  0  0  0
   -6.4272   -2.5072    0.0000 O   0  0  0  0  0  0  0  0  0  0  0  0
   -4.9600   -2.8190    0.0000 C   0  0  0  0  0  0  0  0  0  0  0  0
   -4.2100   -1.5200    0.0000 C   0  0  0  0  0  0  0  0  0  0  0  0
   -5.2137   -0.4053    0.0000 C   0  0  0  0  0  0  0  0  0  0  0  0
   -3.9095    0.3358    0.0000 O   0  0  0  0  0  0  0  0  0  0  0  0
   -2.7100   -1.5200    0.0000 C   0  0  0  0  0  0  0  0  0  0  0  0
   -1.9600   -0.2210    0.0000 C   0  0  0  0  0  0  0  0  0  0  0  0
   -2.7100    1.0781    0.0000 O   0  0  0  0  0  0  0  0  0  0  0  0
   -0.4600   -0.2210    0.0000 C   0  0  0  0  0  0  0  0  0  0  0  0
    0.5042    0.9281    0.0000 C   0  0  0  0  0  0  0  0  0  0  0  0
    1.9814    0.6676    0.0000 N   0  0  0  0  0  0  0  0  0  0  0  0
    2.9456    1.8167    0.0000 N   0  0  0  0  0  0  0  0  0  0  0  0
    2.4318    3.2269    0.0000 C   0  0  0  0  0  0  0  0  0  0  0  0
    3.3960    4.3759    0.0000 C   0  0  0  0  0  0  0  0  0  0  0  0
    4.8739    4.1148    0.0000 N   0  0  0  0  0  0  0  0  0  0  0  0
    5.8381    5.2639    0.0000 C   0  0  0  0  0  0  0  0  0  0  0  0
    5.3877    2.7047    0.0000 C   0  0  0  0  0  0  0  0  0  0  0  0
    4.4235    1.5556    0.0000 C   0  0  0  0  0  0  0  0  0  0  0  0
    0.2900   -1.5200    0.0000 C   0  0  0  0  0  0  0  0  0  0  0  0
    1.7900   -1.5200    0.0000 N   0  0  0  0  0  0  0  0  0  0  0  0
    2.5400   -2.8200    0.0000 C   0  0  0  0  0  0  0  0  0  0  0  0
    1.7898   -4.1189    0.0000 O   0  0  0  0  0  0  0  0  0  0  0  0
    4.0400   -2.8200    0.0000 C   0  0  0  0  0  0  0  0  0  0  0  0
    4.7902   -4.1189    0.0000 C   0  0  0  0  0  0  0  0  0  0  0  0
    4.7900   -1.5200    0.0000 C   0  0  0  0  0  0  0  0  0  0  0  0
    4.0400   -0.2200    0.0000 C   0  0  0  0  0  0  0  0  0  0  0  0
    4.7900    1.0700    0.0000 C   0  0  0  0  0  0  0  0  0  0  0  0
    4.0400    2.3700    0.0000 C   0  0  2  0  0  0  0  0  0  0  0  0
    3.2898    1.0711    0.0000 C   0  0  0  0  0  0  0  0  0  0  0  0
    2.5400    2.3700    0.0000 C   0  0  2  0  0  0  0  0  0  0  0  0
    3.2902    3.6689    0.0000 O   0  0  0  0  0  0  0  0  0  0  0  0
    1.7900    3.6700    0.0000 C   0  0  1  0  0  0  0  0  0  0  0  0
    1.0398    2.3711    0.0000 C   0  0  0  0  0  0  0  0  0  0  0  0
    0.2900    3.6700    0.0000 C   0  0  1  0  0  0  0  0  0  0  0  0
   -0.4602    2.3711    0.0000 O   0  0  0  0  0  0  0  0  0  0  0  0
   -0.4600    4.9700    0.0000 C   0  0  1  0  0  0  0  0  0  0  0  0
    0.2902    6.2689    0.0000 C   0  0  0  0  0  0  0  0  0  0  0  0
   -1.9600    4.9700    0.0000 C   0  0  2  0  0  0  0  0  0  0  0  0
   -2.7102    6.2689    0.0000 O   0  0  0  0  0  0  0  0  0  0  0  0
   -1.9604    7.5681    0.0000 C   0  0  0  0  0  0  0  0  0  0  0  0
   -2.7106    8.8670    0.0000 C   0  0  0  0  0  0  0  0  0  0  0  0
   -0.4604    7.5683    0.0000 O   0  0  0  0  0  0  0  0  0  0  0  0
   -2.7100    3.6700    0.0000 C   0  0  2  0  0  0  0  0  0  0  0  0
   -1.9598    2.3711    0.0000 C   0  0  0  0  0  0  0  0  0  0  0  0
   -0.4600   -2.8190    0.0000 C   0  0  0  0  0  0  0  0  0  0  0  0
    0.2900   -4.1181    0.0000 O   0  0  0  0  0  0  0  0  0  0  0  0
   -1.9600   -2.8190    0.0000 C   0  0  0  0  0  0  0  0  0  0  0  0
   -2.7100   -4.1181    0.0000 C   0  0  0  0  0  0  0  0  0  0  0  0
   -1.9600   -5.4171    0.0000 O   0  0  0  0  0  0  0  0  0  0  0  0
   -4.2100   -4.1181    0.0000 C   0  0  0  0  0  0  0  0  0  0  0  0
   -4.9600   -5.4171    0.0000 C   0  0  0  0  0  0  0  0  0  0  0  0
  1  2  1  0  0  0  0 
  3  2  1  6  0  0  0 
  3  4  1  0  0  0  0 
  4  5  2  0  0  0  0 
  5  6  1  0  0  0  0 
  6  7  1  0  0  0  0 
  7  8  1  1  0  0  0 
  7  9  1  0  0  0  0 
  9 10  1  0  0  0  0 
 10 11  2  0  0  0  0 
 11 12  1  0  0  0  0 
  7 12  1  0  0  0  0 
 12 13  2  0  0  0  0 
 11 14  1  0  0  0  0 
 14 15  2  0  0  0  0 
 15 16  1  0  0  0  0 
 15 17  1  0  0  0  0 
 17 18  1  0  0  0  0 
 18 19  2  0  0  0  0 
 19 20  1  4  0  0  0 
 20 21  1  0  0  0  0 
 21 22  1  0  0  0  0 
 22 23  1  0  0  0  0 
 23 24  1  0  0  0  0 
 23 25  1  0  0  0  0 
 25 26  1  0  0  0  0 
 20 26  1  0  0  0  0 
 17 27  2  0  0  0  0 
 27 28  1  0  0  0  0 
 28 29  1  0  0  0  0 
 29 30  2  0  0  0  0 
 29 31  1  0  0  0  0 
 31 32  1  0  0  0  0 
 31 33  2  0  0  0  0 
 33 34  1  0  0  0  0 
 34 35  2  0  0  0  0 
 35 36  1  0  0  0  0 
 36 37  1  1  0  0  0 
 36 38  1  0  0  0  0 
 38 39  1  6  0  0  0 
 38 40  1  0  0  0  0 
 40 41  1  6  0  0  0 
 40 42  1  0  0  0  0 
 42 43  1  1  0  0  0 
 42 44  1  0  0  0  0 
 44 45  1  6  0  0  0 
 44 46  1  0  0  0  0 
 46 47  1  1  0  0  0 
 47 48  1  0  0  0  0 
 48 49  1  0  0  0  0 
 48 50  2  0  0  0  0 
 46 51  1  0  0  0  0 
  3 51  1  0  0  0  0 
 51 52  1  6  0  0  0 
 27 53  1  0  0  0  0 
 53 54  1  0  0  0  0 
 53 55  2  0  0  0  0 
 14 55  1  0  0  0  0 
 55 56  1  0  0  0  0 
 56 57  1  0  0  0  0 
 56 58  2  0  0  0  0 
 10 58  1  0  0  0  0 
 58 59  1  0  0  0  0 
M  END
> <SMILES>
CO[C@H]1C=CO[C@@]2(C)OC3=C(C2=O)C2=C(O)C(C=NN4CCN(C)CC4)=C(NC(=O)C(C)=C/C=C/[C@H](C)[C@H](O)[C@@H](C)[C@@H](O)[C@@H](C)[C@H](OC(C)=O)[C@@H]1C)C(O)=C2C(O)=C3C

$$$$

  CDK     02041922272D

 41 44  0  0  1  0  0  0  0  0999 V2000
   -0.0522   -5.5772    0.0000 C   0  0  0  0  0  0  0  0  0  0  0  0
   -1.1644   -4.5708    0.0000 C   0  0  0  0  0  0  0  0  0  0  0  0
   -2.5921   -5.0307    0.0000 C   0  0  0  0  0  0  0  0  0  0  0  0
   -0.8489   -3.1043    0.0000 C   0  0  0  0  0  0  0  0  0  0  0  0
   -1.8486   -1.9959    0.0000 C   0  0  0  0  0  0  0  0  0  0  0  0
   -3.3404   -2.1534    0.0000 C   0  0  0  0  0  0  0  0  0  0  0  0
   -3.9499   -3.5240    0.0000 O   0  0  0  0  0  0  0  0  0  0  0  0
   -4.2226   -0.9403    0.0000 N   0  0  0  0  0  0  0  0  0  0  0  0
   -5.7143   -1.0977    0.0000 C   0  0  0  0  0  0  0  0  0  0  0  0
   -6.5966    0.1164    0.0000 C   0  0  0  0  0  0  0  0  0  0  0  0
   -8.0883   -0.0411    0.0000 C   0  0  0  0  0  0  0  0  0  0  0  0
   -8.6977   -1.4126    0.0000 C   0  0  0  0  0  0  0  0  0  0  0  0
   -7.8154   -2.6267    0.0000 C   0  0  0  0  0  0  0  0  0  0  0  0
   -6.3237   -2.4693    0.0000 C   0  0  0  0  0  0  0  0  0  0  0  0
   -1.0986   -0.6969    0.0000 C   0  0  0  0  0  0  0  0  0  0  0  0
    0.3611   -1.0085    0.0000 C   0  0  0  0  0  0  0  0  0  0  0  0
    0.5269   -2.5014    0.0000 N   0  0  0  0  0  0  0  0  0  0  0  0
    1.8259   -3.2514    0.0000 C   0  0  0  0  0  0  0  0  0  0  0  0
    3.1250   -2.5014    0.0000 C   0  0  0  0  0  0  0  0  0  0  0  0
    4.4240   -3.2514    0.0000 C   0  0  1  0  0  0  0  0  0  0  0  0
    4.4240   -4.7514    0.0000 O   0  0  0  0  0  0  0  0  0  0  0  0
    5.7230   -2.5014    0.0000 C   0  0  0  0  0  0  0  0  0  0  0  0
    7.0221   -3.2514    0.0000 C   0  0  1  0  0  0  0  0  0  0  0  0
    7.0221   -4.7514    0.0000 O   0  0  0  0  0  0  0  0  0  0  0  0
    8.3211   -2.5014    0.0000 C   0  0  0  0  0  0  0  0  0  0  0  0
    9.6201   -3.2514    0.0000 C   0  0  0  0  0  0  0  0  0  0  0  0
   10.9192   -2.5014    0.0000 O   0  0  0  0  0  0  0  0  0  0  0  0
    9.6201   -4.7514    0.0000 O   0  0  0  0  0  0  0  0  0  0  0  0
    1.4733   -0.0021    0.0000 C   0  0  0  0  0  0  0  0  0  0  0  0
    1.1580    1.4644    0.0000 C   0  0  0  0  0  0  0  0  0  0  0  0
    2.2714    2.4709    0.0000 C   0  0  0  0  0  0  0  0  0  0  0  0
    3.7000    2.0109    0.0000 C   0  0  0  0  0  0  0  0  0  0  0  0
    4.8122    3.0174    0.0000 F   0  0  0  0  0  0  0  0  0  0  0  0
    4.0152    0.5444    0.0000 C   0  0  0  0  0  0  0  0  0  0  0  0
    2.9019   -0.4621    0.0000 C   0  0  0  0  0  0  0  0  0  0  0  0
   -1.7081    0.6737    0.0000 C   0  0  0  0  0  0  0  0  0  0  0  0
   -3.2007    0.8307    0.0000 C   0  0  0  0  0  0  0  0  0  0  0  0
   -3.8102    2.2013    0.0000 C   0  0  0  0  0  0  0  0  0  0  0  0
   -2.9271    3.4149    0.0000 C   0  0  0  0  0  0  0  0  0  0  0  0
   -1.4346    3.2578    0.0000 C   0  0  0  0  0  0  0  0  0  0  0  0
   -0.8251    1.8872    0.0000 C   0  0  0  0  0  0  0  0  0  0  0  0
  1  2  1  0  0  0  0 
  2  3  1  0  0  0  0 
  2  4  1  0  0  0  0 
  4  5  2  0  0  0  0 
  5  6  1  0  0  0  0 
  6  7  2  0  0  0  0 
  6  8  1  0  0  0  0 
  8  9  1  0  0  0  0 
  9 10  2  0  0  0  0 
 10 11  1  0  0  0  0 
 11 12  2  0  0  0  0 
 12 13  1  0  0  0  0 
 13 14  2  0  0  0  0 
  9 14  1  0  0  0  0 
  5 15  1  0  0  0  0 
 15 16  2  0  0  0  0 
 16 17  1  0  0  0  0 
  4 17  1  0  0  0  0 
 17 18  1  0  0  0  0 
 18 19  1  0  0  0  0 
 19 20  1  0  0  0  0 
 20 21  1  6  0  0  0 
 20 22  1  0  0  0  0 
 22 23  1  0  0  0  0 
 23 24  1  6  0  0  0 
 23 25  1  0  0  0  0 
 25 26  1  0  0  0  0 
 26 27  1  0  0  0  0 
 26 28  2  0  0  0  0 
 16 29  1  0  0  0  0 
 29 30  2  0  0  0  0 
 30 31  1  0  0  0  0 
 31 32  2  0  0  0  0 
 32 33  1  0  0  0  0 
 32 34  1  0  0  0  0 
 34 35  2  0  0  0  0 
 29 35  1  0  0  0  0 
 15 36  1  0  0  0  0 
 36 37  2  0  0  0  0 
 37 38  1  0  0  0  0 
 38 39  2  0  0  0  0 
 39 40  1  0  0  0  0 
 40 41  2  0  0  0  0 
 36 41  1  0  0  0  0 
M  END
> <SMILES>
CC(C)C1=C(C(=O)NC2=CC=CC=C2)C(=C(N1CC[C@@H](O)C[C@@H](O)CC(O)=O)C1=CC=C(F)C=C1)C1=CC=CC=C1

$$$$

  CDK     02041922272D

 29 32  0  0  0  0  0  0  0  0999 V2000
   -4.6218    3.3537    0.0000 O   0  0  0  0  0  0  0  0  0  0  0  0
   -3.7396    2.1406    0.0000 C   0  0  0  0  0  0  0  0  0  0  0  0
   -2.2396    2.1406    0.0000 C   0  0  0  0  0  0  0  0  0  0  0  0
   -1.3574    3.3537    0.0000 C   0  0  0  0  0  0  0  0  0  0  0  0
    0.1343    3.1963    0.0000 C   0  0  0  0  0  0  0  0  0  0  0  0
    1.0166    4.4094    0.0000 S   0  0  0  0  0  0  0  0  0  0  0  0
    0.4071    5.7800    0.0000 O   0  0  0  0  0  0  0  0  0  0  0  0
    2.5083    4.2520    0.0000 C   0  0  0  0  0  0  0  0  0  0  0  0
    3.3907    5.4650    0.0000 C   0  0  0  0  0  0  0  0  0  0  0  0
    4.8831    5.3067    0.0000 C   0  0  0  0  0  0  0  0  0  0  0  0
    5.4932    3.9354    0.0000 C   0  0  0  0  0  0  0  0  0  0  0  0
    4.6108    2.7225    0.0000 C   0  0  0  0  0  0  0  0  0  0  0  0
    3.1183    2.8807    0.0000 C   0  0  0  0  0  0  0  0  0  0  0  0
   -1.7796    0.7206    0.0000 C   0  0  0  0  0  0  0  0  0  0  0  0
   -0.3518    0.2606    0.0000 O   0  0  0  0  0  0  0  0  0  0  0  0
   -2.9896   -0.1694    0.0000 N   0  0  0  0  0  0  0  0  0  0  0  0
   -4.1996    0.7206    0.0000 N   0  0  0  0  0  0  0  0  0  0  0  0
   -5.6273    0.2606    0.0000 C   0  0  0  0  0  0  0  0  0  0  0  0
   -6.7398    1.2680    0.0000 C   0  0  0  0  0  0  0  0  0  0  0  0
   -8.1676    0.8080    0.0000 C   0  0  0  0  0  0  0  0  0  0  0  0
   -8.4828   -0.6593    0.0000 C   0  0  0  0  0  0  0  0  0  0  0  0
   -7.3703   -1.6667    0.0000 C   0  0  0  0  0  0  0  0  0  0  0  0
   -5.9425   -1.2067    0.0000 C   0  0  0  0  0  0  0  0  0  0  0  0
   -2.9896   -1.6694    0.0000 C   0  0  0  0  0  0  0  0  0  0  0  0
   -4.2896   -2.4194    0.0000 C   0  0  0  0  0  0  0  0  0  0  0  0
   -4.2896   -3.9194    0.0000 C   0  0  0  0  0  0  0  0  0  0  0  0
   -2.9896   -4.6694    0.0000 C   0  0  0  0  0  0  0  0  0  0  0  0
   -1.6896   -3.9194    0.0000 C   0  0  0  0  0  0  0  0  0  0  0  0
   -1.6896   -2.4194    0.0000 C   0  0  0  0  0  0  0  0  0  0  0  0
  1  2  2  0  0  0  0 
  2  3  1  0  0  0  0 
  3  4  1  0  0  0  0 
  4  5  1  0  0  0  0 
  5  6  1  0  0  0  0 
  6  7  2  0  0  0  0 
  6  8  1  0  0  0  0 
  8  9  2  0  0  0  0 
  9 10  1  0  0  0  0 
 10 11  2  0  0  0  0 
 11 12  1  0  0  0  0 
 12 13  2  0  0  0  0 
  8 13  1  0  0  0  0 
  3 14  1  0  0  0  0 
 14 15  2  0  0  0  0 
 14 16  1  0  0  0  0 
 16 17  1  0  0  0  0 
  2 17  1  0  0  0  0 
 17 18  1  0  0  0  0 
 18 19  2  0  0  0  0 
 19 20  1  0  0  0  0 
 20 21  2  0  0  0  0 
 21 22  1  0  0  0  0 
 22 23  2  0  0  0  0 
 18 23  1  0  0  0  0 
 16 24  1  0  0  0  0 
 24 25  2  0  0  0  0 
 25 26  1  0  0  0  0 
 26 27  2  0  0  0  0 
 27 28  1  0  0  0  0 
 28 29  2  0  0  0  0 
 24 29  1  0  0  0  0 
M  END
> <SMILES>
O=C1C(CCS(=O)C2=CC=CC=C2)C(=O)N(N1C1=CC=CC=C1)C1=CC=CC=C1

$$$$

  CDK     02041922272D

 17 19  0  0  0  0  0  0  0  0999 V2000
    7.0170    1.8906    0.0000 C   0  0  0  0  0  0  0  0  0  0  0  0
    5.7181    1.1404    0.0000 C   0  0  0  0  0  0  0  0  0  0  0  0
    5.7183   -0.3596    0.0000 O   0  0  0  0  0  0  0  0  0  0  0  0
    4.4189    1.8902    0.0000 N   0  0  0  0  0  0  0  0  0  0  0  0
    3.1200    1.1400    0.0000 C   0  0  0  0  0  0  0  0  0  0  0  0
    3.1200   -0.3600    0.0000 C   0  0  0  0  0  0  0  0  0  0  0  0
    1.8200   -1.1100    0.0000 C   0  0  0  0  0  0  0  0  0  0  0  0
    0.5200   -0.3600    0.0000 C   0  0  0  0  0  0  0  0  0  0  0  0
    0.5200    1.1400    0.0000 C   0  0  0  0  0  0  0  0  0  0  0  0
   -0.9100    1.6100    0.0000 C   0  0  0  0  0  0  0  0  0  0  0  0
   -1.7900    0.3900    0.0000 C   0  0  0  0  0  0  0  0  0  0  0  0
   -3.2800    0.2400    0.0000 C   0  0  0  0  0  0  0  0  0  0  0  0
   -3.8900   -1.1300    0.0000 C   0  0  0  0  0  0  0  0  0  0  0  0
   -3.0100   -2.3500    0.0000 C   0  0  0  0  0  0  0  0  0  0  0  0
   -1.5200   -2.1900    0.0000 C   0  0  0  0  0  0  0  0  0  0  0  0
   -0.9100   -0.8200    0.0000 C   0  0  0  0  0  0  0  0  0  0  0  0
    1.8200    1.8900    0.0000 C   0  0  0  0  0  0  0  0  0  0  0  0
  1  2  1  0  0  0  0 
  2  3  2  0  0  0  0 
  2  4  1  0  0  0  0 
  4  5  1  0  0  0  0 
  5  6  2  0  0  0  0 
  6  7  1  0  0  0  0 
  7  8  2  0  0  0  0 
  8  9  1  0  0  0  0 
  9 10  1  0  0  0  0 
 10 11  1  0  0  0  0 
 11 12  2  0  0  0  0 
 12 13  1  0  0  0  0 
 13 14  2  0  0  0  0 
 14 15  1  0  0  0  0 
 15 16  2  0  0  0  0 
  8 16  1  0  0  0  0 
 11 16  1  0  0  0  0 
  9 17  2  0  0  0  0 
  5 17  1  0  0  0  0 
M  END
> <SMILES>
CC(=O)Nc1ccc2c(Cc3ccccc23)c1

$$$$

  CDK     02041922272D

 59 63  0  0  1  0  0  0  0  0999 V2000
   -6.4602    4.9687    0.0000 C   0  0  0  0  0  0  0  0  0  0  0  0
   -4.9602    4.9689    0.0000 O   0  0  0  0  0  0  0  0  0  0  0  0
   -4.2100    3.6700    0.0000 C   0  0  1  0  0  0  0  0  0  0  0  0
   -4.9600    2.3700    0.0000 C   0  0  0  0  0  0  0  0  0  0  0  0
   -6.4600    2.3700    0.0000 C   0  0  0  0  0  0  0  0  0  0  0  0
   -7.2100    1.0700    0.0000 O   0  0  0  0  0  0  0  0  0  0  0  0
   -6.5840   -1.0154    0.0000 C   0  0  1  0  0  0  0  0  0  0  0  0
   -8.0547   -1.3107    0.0000 C   0  0  0  0  0  0  0  0  0  0  0  0
   -6.4272   -2.5072    0.0000 O   0  0  0  0  0  0  0  0  0  0  0  0
   -4.9600   -2.8190    0.0000 C   0  0  0  0  0  0  0  0  0  0  0  0
   -4.2100   -4.1181    0.0000 C   0  0  0  0  0  0  0  0  0  0  0  0
   -4.9600   -5.4171    0.0000 C   0  0  0  0  0  0  0  0  0  0  0  0
   -2.7100   -4.1181    0.0000 C   0  0  0  0  0  0  0  0  0  0  0  0
   -1.9600   -5.4171    0.0000 O   0  0  0  0  0  0  0  0  0  0  0  0
   -1.9600   -2.8190    0.0000 C   0  0  0  0  0  0  0  0  0  0  0  0
   -0.4600   -2.8190    0.0000 C   0  0  0  0  0  0  0  0  0  0  0  0
    0.2900   -4.1181    0.0000 O   0  0  0  0  0  0  0  0  0  0  0  0
    0.2900   -1.5200    0.0000 C   0  0  0  0  0  0  0  0  0  0  0  0
    1.7900   -1.5200    0.0000 N   0  0  0  0  0  0  0  0  0  0  0  0
    2.5400   -2.8200    0.0000 C   0  0  0  0  0  0  0  0  0  0  0  0
    1.7898   -4.1189    0.0000 O   0  0  0  0  0  0  0  0  0  0  0  0
    4.0400   -2.8200    0.0000 C   0  0  0  0  0  0  0  0  0  0  0  0
    4.7900   -1.5200    0.0000 C   0  0  0  0  0  0  0  0  0  0  0  0
    4.0400   -0.2200    0.0000 C   0  0  0  0  0  0  0  0  0  0  0  0
    4.7900    1.0700    0.0000 C   0  0  0  0  0  0  0  0  0  0  0  0
    4.0400    2.3700    0.0000 C   0  0  2  0  0  0  0  0  0  0  0  0
    3.2898    1.0711    0.0000 C   0  0  0  0  0  0  0  0  0  0  0  0
    2.5400    2.3700    0.0000 C   0  0  2  0  0  0  0  0  0  0  0  0
    3.2902    3.6689    0.0000 O   0  0  0  0  0  0  0  0  0  0  0  0
    1.7900    3.6700    0.0000 C   0  0  1  0  0  0  0  0  0  0  0  0
    1.0398    2.3711    0.0000 C   0  0  0  0  0  0  0  0  0  0  0  0
    0.2900    3.6700    0.0000 C   0  0  1  0  0  0  0  0  0  0  0  0
   -0.4602    2.3711    0.0000 O   0  0  0  0  0  0  0  0  0  0  0  0
   -0.4600    4.9700    0.0000 C   0  0  1  0  0  0  0  0  0  0  0  0
    0.2902    6.2689    0.0000 C   0  0  0  0  0  0  0  0  0  0  0  0
   -1.9600    4.9700    0.0000 C   0  0  2  0  0  0  0  0  0  0  0  0
   -2.7102    6.2689    0.0000 O   0  0  0  0  0  0  0  0  0  0  0  0
   -1.9604    7.5681    0.0000 C   0  0  0  0  0  0  0  0  0  0  0  0
   -0.4604    7.5683    0.0000 O   0  0  0  0  0  0  0  0  0  0  0  0
   -2.7106    8.8670    0.0000 C   0  0  0  0  0  0  0  0  0  0  0  0
   -2.7100    3.6700    0.0000 C   0  0  2  0  0  0  0  0  0  0  0  0
   -1.9598    2.3711    0.0000 C   0  0  0  0  0  0  0  0  0  0  0  0
    4.7902   -4.1189    0.0000 C   0  0  0  0  0  0  0  0  0  0  0  0
   -0.4600   -0.2210    0.0000 C   0  0  0  0  0  0  0  0  0  0  0  0
    0.5042    0.9281    0.0000 C   0  0  0  0  0  0  0  0  0  0  0  0
    1.9814    0.6676    0.0000 N   0  0  0  0  0  0  0  0  0  0  0  0
    2.9456    1.8167    0.0000 N   0  0  0  0  0  0  0  0  0  0  0  0
    2.4318    3.2269    0.0000 C   0  0  0  0  0  0  0  0  0  0  0  0
    3.3960    4.3759    0.0000 C   0  0  0  0  0  0  0  0  0  0  0  0
    4.8739    4.1148    0.0000 N   0  0  0  0  0  0  0  0  0  0  0  0
    5.8381    5.2639    0.0000 C   0  0  0  0  0  0  0  0  0  0  0  0
    5.3877    2.7047    0.0000 C   0  0  0  0  0  0  0  0  0  0  0  0
    4.4235    1.5556    0.0000 C   0  0  0  0  0  0  0  0  0  0  0  0
   -1.9600   -0.2210    0.0000 C   0  0  0  0  0  0  0  0  0  0  0  0
   -2.7100    1.0781    0.0000 O   0  0  0  0  0  0  0  0  0  0  0  0
   -2.7100   -1.5200    0.0000 C   0  0  0  0  0  0  0  0  0  0  0  0
   -4.2100   -1.5200    0.0000 C   0  0  0  0  0  0  0  0  0  0  0  0
   -5.2137   -0.4053    0.0000 C   0  0  0  0  0  0  0  0  0  0  0  0
   -3.9095    0.3358    0.0000 O   0  0  0  0  0  0  0  0  0  0  0  0
  1  2  1  0  0  0  0 
  3  2  1  6  0  0  0 
  3  4  1  0  0  0  0 
  4  5  2  0  0  0  0 
  5  6  1  0  0  0  0 
  6  7  1  0  0  0  0 
  7  8  1  1  0  0  0 
  7  9  1  0  0  0  0 
  9 10  1  0  0  0  0 
 10 11  2  0  0  0  0 
 11 12  1  0  0  0  0 
 11 13  1  0  0  0  0 
 13 14  1  0  0  0  0 
 13 15  2  0  0  0  0 
 15 16  1  0  0  0  0 
 16 17  1  0  0  0  0 
 16 18  2  0  0  0  0 
 18 19  1  0  0  0  0 
 19 20  1  0  0  0  0 
 20 21  2  0  0  0  0 
 20 22  1  0  0  0  0 
 22 23  2  0  0  0  0 
 23 24  1  0  0  0  0 
 24 25  2  0  0  0  0 
 25 26  1  0  0  0  0 
 26 27  1  1  0  0  0 
 26 28  1  0  0  0  0 
 28 29  1  6  0  0  0 
 28 30  1  0  0  0  0 
 30 31  1  6  0  0  0 
 30 32  1  0  0  0  0 
 32 33  1  1  0  0  0 
 32 34  1  0  0  0  0 
 34 35  1  6  0  0  0 
 34 36  1  0  0  0  0 
 36 37  1  1  0  0  0 
 37 38  1  0  0  0  0 
 38 39  2  0  0  0  0 
 38 40  1  0  0  0  0 
 36 41  1  0  0  0  0 
  3 41  1  0  0  0  0 
 41 42  1  6  0  0  0 
 22 43  1  0  0  0  0 
 18 44  1  0  0  0  0 
 44 45  1  0  0  0  0 
 45 46  2  0  0  0  0 
 46 47  1  4  0  0  0 
 47 48  1  0  0  0  0 
 48 49  1  0  0  0  0 
 49 50  1  0  0  0  0 
 50 51  1  0  0  0  0 
 50 52  1  0  0  0  0 
 52 53  1  0  0  0  0 
 47 53  1  0  0  0  0 
 44 54  2  0  0  0  0 
 54 55  1  0  0  0  0 
 54 56  1  0  0  0  0 
 15 56  1  0  0  0  0 
 56 57  2  0  0  0  0 
 10 57  1  0  0  0  0 
 57 58  1  0  0  0  0 
  7 58  1  0  0  0  0 
 58 59  2  0  0  0  0 
M  END
> <SMILES>
CO[C@H]1C=CO[C@@]2(C)Oc3c(C)c(O)c4c(O)c(NC(=O)C(=C/C=C/[C@H](C)[C@H](O)[C@@H](C)[C@@H](O)[C@@H](C)[C@H](OC(=O)C)[C@@H]1C)C)c(C=NN5CCN(C)CC5)c(O)c4c3C2=O

$$$$
