
  CDK     01261921162D

 14 14  0  0  0  0  0  0  0  0999 V2000
    2.5989   -1.5002    0.0000 N   0  0  0  0  0  0  0  0  0  0  0  0
    1.3000   -0.7500    0.0000 C   0  0  0  0  0  0  0  0  0  0  0  0
    0.0000   -1.5000    0.0000 C   0  0  0  0  0  0  0  0  0  0  0  0
   -1.3000   -0.7500    0.0000 C   0  0  0  0  0  0  0  0  0  0  0  0
   -1.3000    0.7500    0.0000 C   0  0  0  0  0  0  0  0  0  0  0  0
    0.0000    1.5000    0.0000 C   0  0  0  0  0  0  0  0  0  0  0  0
    1.3000    0.7500    0.0000 C   0  0  0  0  0  0  0  0  0  0  0  0
   -2.5989    1.5002    0.0000 C   0  0  0  0  0  0  0  0  0  0  0  0
   -2.5987    3.0002    0.0000 O   0  0  0  0  0  0  0  0  0  0  0  0
   -3.8981    0.7504    0.0000 N   0  0  0  0  0  0  0  0  0  0  0  0
   -5.1970    1.5006    0.0000 C   0  0  0  0  0  0  0  0  0  0  0  0
   -6.4962    0.7508    0.0000 C   0  0  0  0  0  0  0  0  0  0  0  0
   -6.4964   -0.7492    0.0000 O   0  0  0  0  0  0  0  0  0  0  0  0
   -7.7951    1.5010    0.0000 O   0  0  0  0  0  0  0  0  0  0  0  0
  1  2  1  0  0  0  0 
  2  3  2  0  0  0  0 
  3  4  1  0  0  0  0 
  4  5  2  0  0  0  0 
  5  6  1  0  0  0  0 
  6  7  2  0  0  0  0 
  2  7  1  0  0  0  0 
  5  8  1  0  0  0  0 
  8  9  2  0  0  0  0 
  8 10  1  0  0  0  0 
 10 11  1  0  0  0  0 
 11 12  1  0  0  0  0 
 12 13  2  0  0  0  0 
 12 14  1  0  0  0  0 
M  END
> <SMILES>
Nc1ccc(cc1)C(=O)NCC(=O)O

$$$$

  CDK     01261921162D

 19 20  0  0  0  0  0  0  0  0999 V2000
   -3.5700   -1.5284    0.0000 N   0  0  0  0  0  0  0  0  0  0  0  0
   -2.2700   -0.7800    0.0000 C   0  0  0  0  0  0  0  0  0  0  0  0
   -2.2700    0.7800    0.0000 N   0  0  0  0  0  0  0  0  0  0  0  0
   -1.0300    1.5000    0.0000 C   0  0  0  0  0  0  0  0  0  0  0  0
   -1.0500    2.9999    0.0000 N   0  0  0  0  0  0  0  0  0  0  0  0
    0.2900    0.7800    0.0000 C   0  0  0  0  0  0  0  0  0  0  0  0
    1.7000    1.1800    0.0000 C   0  0  0  0  0  0  0  0  0  0  0  0
    2.6100    0.0100    0.0000 C   0  0  0  0  0  0  0  0  0  0  0  0
    1.7000   -1.1900    0.0000 N   0  0  0  0  0  0  0  0  0  0  0  0
    2.1711   -2.6141    0.0000 C   0  0  0  0  0  0  0  0  0  0  0  0
    3.6400   -2.9181    0.0000 C   0  0  0  0  0  0  0  0  0  0  0  0
    4.1112   -4.3422    0.0000 O   0  0  0  0  0  0  0  0  0  0  0  0
    5.5800   -4.6462    0.0000 C   0  0  0  0  0  0  0  0  0  0  0  0
    6.0512   -6.0703    0.0000 P   0  0  0  0  0  0  0  0  0  0  0  0
    4.5669   -6.2870    0.0000 O   0  0  0  0  0  0  0  0  0  0  0  0
    7.5200   -6.3743    0.0000 O   0  0  0  0  0  0  0  0  0  0  0  0
    6.0068   -7.5697    0.0000 O   0  0  0  0  0  0  0  0  0  0  0  0
    0.2900   -0.7800    0.0000 C   0  0  0  0  0  0  0  0  0  0  0  0
   -1.0300   -1.5000    0.0000 N   0  0  0  0  0  0  0  0  0  0  0  0
  1  2  1  0  0  0  0 
  2  3  2  0  0  0  0 
  3  4  1  0  0  0  0 
  4  5  1  0  0  0  0 
  4  6  2  0  0  0  0 
  6  7  1  0  0  0  0 
  7  8  2  0  0  0  0 
  8  9  1  0  0  0  0 
  9 10  1  0  0  0  0 
 10 11  1  0  0  0  0 
 11 12  1  0  0  0  0 
 12 13  1  0  0  0  0 
 13 14  1  0  0  0  0 
 14 15  2  0  0  0  0 
 14 16  1  0  0  0  0 
 14 17  1  0  0  0  0 
  9 18  1  0  0  0  0 
  6 18  1  0  0  0  0 
 18 19  2  0  0  0  0 
  2 19  1  0  0  0  0 
M  END
> <SMILES>
Nc1nc(N)c2ccn(CCOCP(=O)(O)O)c2n1

$$$$

  CDK     01261921162D

  9  8  0  0  0  0  0  0  0  0999 V2000
    0.0000    0.0000    0.0000 O   0  0  0  0  0  0  0  0  0  0  0  0
    1.2990   -0.7500    0.0000 C   0  0  0  0  0  0  0  0  0  0  0  0
    1.2990   -2.2500    0.0000 O   0  0  0  0  0  0  0  0  0  0  0  0
    2.5981   -0.0000    0.0000 C   0  0  0  0  0  0  0  0  0  0  0  0
    3.8971   -0.7500    0.0000 C   0  0  0  0  0  0  0  0  0  0  0  0
    5.1962   -0.0000    0.0000 C   0  0  0  0  0  0  0  0  0  0  0  0
    6.4952   -0.7500    0.0000 C   0  0  0  0  0  0  0  0  0  0  0  0
    6.4952   -2.2500    0.0000 O   0  0  0  0  0  0  0  0  0  0  0  0
    7.7942   -0.0000    0.0000 O   0  0  0  0  0  0  0  0  0  0  0  0
  1  2  1  0  0  0  0 
  2  3  2  0  0  0  0 
  2  4  1  0  0  0  0 
  4  5  1  0  0  0  0 
  5  6  1  0  0  0  0 
  6  7  1  0  0  0  0 
  7  8  2  0  0  0  0 
  7  9  1  0  0  0  0 
M  END
> <SMILES>
OC(=O)CCCC(=O)O

$$$$

  CDK     01261921162D

 16 17  0  0  1  0  0  0  0  0999 V2000
    6.6700    0.0087    0.0000 N   0  0  0  0  0  0  0  0  0  0  0  0
    5.9225   -1.2918    0.0000 C   0  0  2  0  0  0  0  0  0  0  0  0
    4.4225   -1.2947    0.0000 C   0  0  0  0  0  0  0  0  0  0  0  0
    3.6700    0.0029    0.0000 S   0  0  0  0  0  0  0  0  0  0  0  0
    2.1700    0.0000    0.0000 C   0  0  0  0  0  0  0  0  0  0  0  0
    1.3400   -1.2100    0.0000 N   0  0  0  0  0  0  0  0  0  0  0  0
   -0.0900   -0.7500    0.0000 C   0  0  0  0  0  0  0  0  0  0  0  0
   -1.4500   -1.5100    0.0000 C   0  0  0  0  0  0  0  0  0  0  0  0
   -2.7300   -0.7500    0.0000 C   0  0  0  0  0  0  0  0  0  0  0  0
   -2.7300    0.7500    0.0000 C   0  0  0  0  0  0  0  0  0  0  0  0
   -1.4500    1.5100    0.0000 C   0  0  0  0  0  0  0  0  0  0  0  0
   -0.0900    0.7500    0.0000 C   0  0  0  0  0  0  0  0  0  0  0  0
    1.3400    1.2000    0.0000 S   0  0  0  0  0  0  0  0  0  0  0  0
    6.6750   -2.5893    0.0000 C   0  0  0  0  0  0  0  0  0  0  0  0
    5.9275   -3.8898    0.0000 O   0  0  0  0  0  0  0  0  0  0  0  0
    8.1750   -2.5864    0.0000 O   0  0  0  0  0  0  0  0  0  0  0  0
  2  1  1  1  0  0  0 
  2  3  1  0  0  0  0 
  3  4  1  0  0  0  0 
  4  5  1  0  0  0  0 
  5  6  2  0  0  0  0 
  6  7  1  0  0  0  0 
  7  8  2  0  0  0  0 
  8  9  1  0  0  0  0 
  9 10  2  0  0  0  0 
 10 11  1  0  0  0  0 
 11 12  2  0  0  0  0 
  7 12  1  0  0  0  0 
 12 13  1  0  0  0  0 
  5 13  1  0  0  0  0 
  2 14  1  0  0  0  0 
 14 15  2  0  0  0  0 
 14 16  1  0  0  0  0 
M  END
> <SMILES>
N[C@H](CSc1nc2ccccc2s1)C(=O)O

$$$$

  CDK     01261921162D

 12 13  0  0  0  0  0  0  0  0999 V2000
   -3.5567   -1.6340    0.0000 O   0  0  0  0  0  0  0  0  0  0  0  0
   -2.2600   -0.8800    0.0000 C   0  0  0  0  0  0  0  0  0  0  0  0
   -2.2600    0.6200    0.0000 N   0  0  0  0  0  0  0  0  0  0  0  0
   -0.9600    1.3800    0.0000 C   0  0  0  0  0  0  0  0  0  0  0  0
   -0.9600    2.8800    0.0000 O   0  0  0  0  0  0  0  0  0  0  0  0
    0.3400    0.6200    0.0000 C   0  0  0  0  0  0  0  0  0  0  0  0
    1.7600    1.0900    0.0000 N   0  0  0  0  0  0  0  0  0  0  0  0
    2.6400   -0.1200    0.0000 C   0  0  0  0  0  0  0  0  0  0  0  0
    4.1400   -0.1171    0.0000 O   0  0  0  0  0  0  0  0  0  0  0  0
    1.7600   -1.3400    0.0000 N   0  0  0  0  0  0  0  0  0  0  0  0
    0.3400   -0.8800    0.0000 C   0  0  0  0  0  0  0  0  0  0  0  0
   -0.9600   -1.6200    0.0000 N   0  0  0  0  0  0  0  0  0  0  0  0
  1  2  1  0  0  0  0 
  2  3  2  0  0  0  0 
  3  4  1  0  0  0  0 
  4  5  1  0  0  0  0 
  4  6  2  0  0  0  0 
  6  7  1  0  0  0  0 
  7  8  2  0  0  0  0 
  8  9  1  0  0  0  0 
  8 10  1  0  0  0  0 
 10 11  1  0  0  0  0 
  6 11  1  0  0  0  0 
 11 12  2  0  0  0  0 
  2 12  1  0  0  0  0 
M  END
> <SMILES>
Oc1nc(O)c2nc(O)[nH]c2n1

$$$$

  CDK     01261921162D

 25 25  0  0  1  0  0  0  0  0999 V2000
   -7.8039   -2.5302    0.0000 C   0  0  0  0  0  0  0  0  0  0  0  0
   -6.3115   -2.6813    0.0000 C   0  0  0  0  0  0  0  0  0  0  0  0
   -5.4345   -1.4645    0.0000 C   0  0  0  0  0  0  0  0  0  0  0  0
   -3.9421   -1.6156    0.0000 C   0  0  0  0  0  0  0  0  0  0  0  0
   -3.0651   -0.3987    0.0000 C   0  0  0  0  0  0  0  0  0  0  0  0
   -1.5727   -0.5498    0.0000 C   0  0  2  0  0  0  0  0  0  0  0  0
   -0.9574   -1.9178    0.0000 O   0  0  0  0  0  0  0  0  0  0  0  0
   -0.6956    0.6670    0.0000 C   0  0  0  0  0  0  0  0  0  0  0  0
    0.7967    0.5159    0.0000 C   0  0  0  0  0  0  0  0  0  0  0  0
    1.6738    1.7327    0.0000 C   0  0  1  0  0  0  0  0  0  0  0  0
    1.2038    3.1427    0.0000 C   0  0  2  0  0  0  0  0  0  0  0  0
   -0.2271    3.5928    0.0000 O   0  0  0  0  0  0  0  0  0  0  0  0
    2.4138    4.0427    0.0000 C   0  0  0  0  0  0  0  0  0  0  0  0
    3.6438    3.1627    0.0000 C   0  0  0  0  0  0  0  0  0  0  0  0
    5.0695    3.6291    0.0000 O   0  0  0  0  0  0  0  0  0  0  0  0
    3.1738    1.7327    0.0000 C   0  0  2  0  0  0  0  0  0  0  0  0
    4.0534    0.5177    0.0000 C   0  0  0  0  0  0  0  0  0  0  0  0
    5.5455    0.6720    0.0000 C   0  0  0  0  0  0  0  0  0  0  0  0
    6.4251   -0.5430    0.0000 C   0  0  0  0  0  0  0  0  0  0  0  0
    7.9171   -0.3888    0.0000 C   0  0  0  0  0  0  0  0  0  0  0  0
    8.7968   -1.6038    0.0000 C   0  0  0  0  0  0  0  0  0  0  0  0
   10.2888   -1.4495    0.0000 C   0  0  0  0  0  0  0  0  0  0  0  0
   11.1684   -2.6645    0.0000 C   0  0  0  0  0  0  0  0  0  0  0  0
   10.5560   -4.0338    0.0000 O   0  0  0  0  0  0  0  0  0  0  0  0
   12.6605   -2.5103    0.0000 O   0  0  0  0  0  0  0  0  0  0  0  0
  1  2  1  0  0  0  0 
  2  3  1  0  0  0  0 
  3  4  1  0  0  0  0 
  4  5  1  0  0  0  0 
  5  6  1  0  0  0  0 
  6  7  1  1  0  0  0 
  6  8  1  0  0  0  0 
  8  9  2  3  0  0  0 
 10  9  1  1  0  0  0 
 10 11  1  0  0  0  0 
 11 12  1  6  0  0  0 
 11 13  1  0  0  0  0 
 13 14  1  0  0  0  0 
 14 15  2  0  0  0  0 
 14 16  1  0  0  0  0 
 10 16  1  0  0  0  0 
 16 17  1  6  0  0  0 
 17 18  1  4  0  0  0 
 18 19  2  0  0  0  0 
 19 20  1  0  0  0  0 
 20 21  1  0  0  0  0 
 21 22  1  0  0  0  0 
 22 23  1  0  0  0  0 
 23 24  2  0  0  0  0 
 23 25  1  0  0  0  0 
M  END
> <SMILES>
CCCCC[C@H](O)C=C[C@H]1[C@H](O)CC(=O)[C@@H]1CC=C/CCCC(=O)O

$$$$

  CDK     01261921162D

 18 18  0  0  1  0  0  0  0  0999 V2000
   -6.8866   -2.1982    0.0000 N   0  0  0  0  0  0  0  0  0  0  0  0
   -5.3866   -2.1907    0.0000 C   0  0  0  0  0  0  0  0  0  0  0  0
   -4.6366   -0.8707    0.0000 N   0  0  0  0  0  0  0  0  0  0  0  0
   -3.1366   -0.8707    0.0000 C   0  0  0  0  0  0  0  0  0  0  0  0
   -2.3886    0.4295    0.0000 O   0  0  0  0  0  0  0  0  0  0  0  0
   -2.3866   -2.1607    0.0000 N   0  0  0  0  0  0  0  0  0  0  0  0
   -0.8867   -2.1402    0.0000 C   0  0  0  0  0  0  0  0  0  0  0  0
   -0.1191   -3.4289    0.0000 C   0  0  1  0  0  0  0  0  0  0  0  0
   -0.8513   -4.7381    0.0000 C   0  0  0  0  0  0  0  0  0  0  0  0
   -0.0837   -6.0268    0.0000 O   0  0  0  0  0  0  0  0  0  0  0  0
    1.3808   -3.4085    0.0000 O   0  0  0  0  0  0  0  0  0  0  0  0
    2.1484   -4.6972    0.0000 C   0  0  0  0  0  0  0  0  0  0  0  0
    3.6483   -4.6767    0.0000 P   0  0  0  0  0  0  0  0  0  0  0  0
    5.0507   -4.1445    0.0000 O   0  0  0  0  0  0  0  0  0  0  0  0
    4.4159   -5.9654    0.0000 O   0  0  0  0  0  0  0  0  0  0  0  0
    3.3677   -3.2032    0.0000 O   0  0  0  0  0  0  0  0  0  0  0  0
   -3.1066   -3.4807    0.0000 C   0  0  0  0  0  0  0  0  0  0  0  0
   -4.6366   -3.4807    0.0000 C   0  0  0  0  0  0  0  0  0  0  0  0
  1  2  1  0  0  0  0 
  2  3  2  0  0  0  0 
  3  4  1  0  0  0  0 
  4  5  2  0  0  0  0 
  4  6  1  0  0  0  0 
  6  7  1  0  0  0  0 
  7  8  1  0  0  0  0 
  8  9  1  0  0  0  0 
  9 10  1  0  0  0  0 
  8 11  1  6  0  0  0 
 11 12  1  0  0  0  0 
 12 13  1  0  0  0  0 
 13 14  2  0  0  0  0 
 13 15  1  0  0  0  0 
 13 16  1  0  0  0  0 
  6 17  1  0  0  0  0 
 17 18  2  0  0  0  0 
  2 18  1  0  0  0  0 
M  END
> <SMILES>
NC1=NC(=O)N(C[C@@H](CO)OCP(=O)(O)O)C=C1

$$$$

  CDK     01261921162D

 15 16  0  0  1  0  0  0  0  0999 V2000
    5.4001   -4.4033    0.0000 N   0  0  0  0  0  0  0  0  0  0  0  0
    4.0973   -3.6598    0.0000 C   0  0  0  0  0  0  0  0  0  0  0  0
    2.7878   -4.4279    0.0000 N   0  0  0  0  0  0  0  0  0  0  0  0
    1.4888   -3.6779    0.0000 C   0  0  0  0  0  0  0  0  0  0  0  0
    0.1909   -4.4299    0.0000 O   0  0  0  0  0  0  0  0  0  0  0  0
    1.4842   -2.1858    0.0000 N   0  0  0  0  0  0  0  0  0  0  0  0
    2.7678   -1.4026    0.0000 C   0  0  0  0  0  0  0  0  0  0  0  0
    4.0928   -2.1676    0.0000 C   0  0  0  0  0  0  0  0  0  0  0  0
    0.1751   -1.4535    0.0000 C   0  0  1  0  0  0  0  0  0  0  0  0
    0.0038    0.0292    0.0000 C   0  0  0  0  0  0  0  0  0  0  0  0
   -1.4668    0.3247    0.0000 C   0  0  0  0  0  0  0  0  0  0  0  0
   -2.1975   -0.9768    0.0000 C   0  0  1  0  0  0  0  0  0  0  0  0
   -3.6879   -1.1465    0.0000 C   0  0  0  0  0  0  0  0  0  0  0  0
   -4.5800    0.0593    0.0000 O   0  0  0  0  0  0  0  0  0  0  0  0
   -1.1865   -2.0877    0.0000 O   0  0  0  0  0  0  0  0  0  0  0  0
  1  2  1  0  0  0  0 
  2  3  2  0  0  0  0 
  3  4  1  0  0  0  0 
  4  5  2  0  0  0  0 
  4  6  1  0  0  0  0 
  6  7  1  0  0  0  0 
  7  8  2  0  0  0  0 
  2  8  1  0  0  0  0 
  9  6  1  6  0  0  0 
  9 10  1  0  0  0  0 
 10 11  1  0  0  0  0 
 11 12  1  0  0  0  0 
 12 13  1  6  0  0  0 
 13 14  1  0  0  0  0 
 12 15  1  0  0  0  0 
  9 15  1  0  0  0  0 
M  END
> <SMILES>
NC1=NC(=O)N(C=C1)[C@H]2CC[C@@H](CO)O2

$$$$

  CDK     01261921162D

 19 20  0  0  0  0  0  0  0  0999 V2000
   -3.4155   -1.2529    0.0000 N   0  0  0  0  0  0  0  0  0  0  0  0
   -2.0800   -0.5700    0.0000 C   0  0  0  0  0  0  0  0  0  0  0  0
   -0.8900   -1.3700    0.0000 N   0  0  0  0  0  0  0  0  0  0  0  0
    0.5900   -0.6700    0.0000 C   0  0  0  0  0  0  0  0  0  0  0  0
    0.5600    0.8300    0.0000 C   0  0  0  0  0  0  0  0  0  0  0  0
    2.0100    1.2500    0.0000 N   0  0  0  0  0  0  0  0  0  0  0  0
    2.8500    0.0000    0.0000 C   0  0  0  0  0  0  0  0  0  0  0  0
    1.9200   -1.1800    0.0000 N   0  0  0  0  0  0  0  0  0  0  0  0
    2.3180   -2.6262    0.0000 C   0  0  0  0  0  0  0  0  0  0  0  0
    3.7695   -3.0046    0.0000 C   0  0  0  0  0  0  0  0  0  0  0  0
    4.1676   -4.4508    0.0000 O   0  0  0  0  0  0  0  0  0  0  0  0
    5.6191   -4.8292    0.0000 C   0  0  0  0  0  0  0  0  0  0  0  0
    6.0171   -6.2754    0.0000 P   0  0  0  0  0  0  0  0  0  0  0  0
    4.5238   -6.4163    0.0000 O   0  0  0  0  0  0  0  0  0  0  0  0
    7.4686   -6.6538    0.0000 O   0  0  0  0  0  0  0  0  0  0  0  0
    5.8965   -7.7706    0.0000 O   0  0  0  0  0  0  0  0  0  0  0  0
   -0.7100    1.6300    0.0000 C   0  0  0  0  0  0  0  0  0  0  0  0
   -0.6585    3.1291    0.0000 O   0  0  0  0  0  0  0  0  0  0  0  0
   -2.0300    0.9200    0.0000 N   0  0  0  0  0  0  0  0  0  0  0  0
  1  2  1  0  0  0  0 
  2  3  2  0  0  0  0 
  3  4  1  0  0  0  0 
  4  5  2  0  0  0  0 
  5  6  1  0  0  0  0 
  6  7  2  0  0  0  0 
  7  8  1  0  0  0  0 
  4  8  1  0  0  0  0 
  8  9  1  0  0  0  0 
  9 10  1  0  0  0  0 
 10 11  1  0  0  0  0 
 11 12  1  0  0  0  0 
 12 13  1  0  0  0  0 
 13 14  2  0  0  0  0 
 13 15  1  0  0  0  0 
 13 16  1  0  0  0  0 
  5 17  1  0  0  0  0 
 17 18  2  0  0  0  0 
 17 19  1  0  0  0  0 
  2 19  1  0  0  0  0 
M  END
> <SMILES>
NC1=Nc2c(ncn2CCOCP(=O)(O)O)C(=O)N1

$$$$

  CDK     01261921162D

 25 25  0  0  1  0  0  0  0  0999 V2000
   -7.8039   -2.5302    0.0000 C   0  0  0  0  0  0  0  0  0  0  0  0
   -6.3115   -2.6813    0.0000 C   0  0  0  0  0  0  0  0  0  0  0  0
   -5.4345   -1.4645    0.0000 C   0  0  0  0  0  0  0  0  0  0  0  0
   -3.9421   -1.6156    0.0000 C   0  0  0  0  0  0  0  0  0  0  0  0
   -3.0651   -0.3987    0.0000 C   0  0  0  0  0  0  0  0  0  0  0  0
   -1.5727   -0.5498    0.0000 C   0  0  2  0  0  0  0  0  0  0  0  0
   -0.9574   -1.9178    0.0000 O   0  0  0  0  0  0  0  0  0  0  0  0
   -0.6956    0.6670    0.0000 C   0  0  0  0  0  0  0  0  0  0  0  0
    0.7967    0.5159    0.0000 C   0  0  0  0  0  0  0  0  0  0  0  0
    1.6738    1.7327    0.0000 C   0  0  1  0  0  0  0  0  0  0  0  0
    1.2038    3.1427    0.0000 C   0  0  2  0  0  0  0  0  0  0  0  0
   -0.2271    3.5928    0.0000 O   0  0  0  0  0  0  0  0  0  0  0  0
    2.4138    4.0427    0.0000 C   0  0  0  0  0  0  0  0  0  0  0  0
    3.6438    3.1627    0.0000 C   0  0  2  0  0  0  0  0  0  0  0  0
    5.0695    3.6291    0.0000 O   0  0  0  0  0  0  0  0  0  0  0  0
    3.1738    1.7327    0.0000 C   0  0  2  0  0  0  0  0  0  0  0  0
    4.0534    0.5177    0.0000 C   0  0  0  0  0  0  0  0  0  0  0  0
    5.5455    0.6720    0.0000 C   0  0  0  0  0  0  0  0  0  0  0  0
    6.4251   -0.5430    0.0000 C   0  0  0  0  0  0  0  0  0  0  0  0
    7.9171   -0.3888    0.0000 C   0  0  0  0  0  0  0  0  0  0  0  0
    8.7968   -1.6038    0.0000 C   0  0  0  0  0  0  0  0  0  0  0  0
   10.2888   -1.4495    0.0000 C   0  0  0  0  0  0  0  0  0  0  0  0
   11.1684   -2.6645    0.0000 C   0  0  0  0  0  0  0  0  0  0  0  0
   10.5560   -4.0338    0.0000 O   0  0  0  0  0  0  0  0  0  0  0  0
   12.6605   -2.5103    0.0000 O   0  0  0  0  0  0  0  0  0  0  0  0
  1  2  1  0  0  0  0 
  2  3  1  0  0  0  0 
  3  4  1  0  0  0  0 
  4  5  1  0  0  0  0 
  5  6  1  0  0  0  0 
  6  7  1  1  0  0  0 
  6  8  1  0  0  0  0 
  8  9  2  3  0  0  0 
 10  9  1  1  0  0  0 
 10 11  1  0  0  0  0 
 11 12  1  6  0  0  0 
 11 13  1  0  0  0  0 
 13 14  1  0  0  0  0 
 14 15  1  6  0  0  0 
 14 16  1  0  0  0  0 
 10 16  1  0  0  0  0 
 16 17  1  6  0  0  0 
 17 18  1  4  0  0  0 
 18 19  2  0  0  0  0 
 19 20  1  0  0  0  0 
 20 21  1  0  0  0  0 
 21 22  1  0  0  0  0 
 22 23  1  0  0  0  0 
 23 24  2  0  0  0  0 
 23 25  1  0  0  0  0 
M  END
> <SMILES>
CCCCC[C@H](O)C=C[C@H]1[C@H](O)C[C@H](O)[C@@H]1CC=C/CCCC(=O)O

$$$$

  CDK     01261921162D

 14 15  0  0  0  0  0  0  0  0999 V2000
    5.9335    2.4362    0.0000 O   0  0  0  0  0  0  0  0  0  0  0  0
    4.8708    1.3776    0.0000 S   0  0  0  0  0  0  0  0  0  0  0  0
    4.2343    0.0194    0.0000 O   0  0  0  0  0  0  0  0  0  0  0  0
    6.0979    0.5149    0.0000 O   0  0  0  0  0  0  0  0  0  0  0  0
    3.4227    1.7686    0.0000 O   0  0  0  0  0  0  0  0  0  0  0  0
    2.3600    0.7100    0.0000 C   0  0  0  0  0  0  0  0  0  0  0  0
    2.3600   -0.7900    0.0000 C   0  0  0  0  0  0  0  0  0  0  0  0
    1.0500   -1.5300    0.0000 N   0  0  0  0  0  0  0  0  0  0  0  0
   -0.2400   -0.7800    0.0000 C   0  0  0  0  0  0  0  0  0  0  0  0
   -1.5300   -1.5300    0.0000 C   0  0  0  0  0  0  0  0  0  0  0  0
   -2.8300   -0.7800    0.0000 C   0  0  0  0  0  0  0  0  0  0  0  0
   -2.8300    0.7200    0.0000 C   0  0  0  0  0  0  0  0  0  0  0  0
   -1.5300    1.4700    0.0000 C   0  0  0  0  0  0  0  0  0  0  0  0
   -0.2300    0.7200    0.0000 C   0  0  0  0  0  0  0  0  0  0  0  0
  1  2  1  0  0  0  0 
  2  3  2  0  0  0  0 
  2  4  2  0  0  0  0 
  2  5  1  0  0  0  0 
  5  6  1  0  0  0  0 
  6  7  2  0  0  0  0 
  7  8  1  0  0  0  0 
  8  9  1  0  0  0  0 
  9 10  2  0  0  0  0 
 10 11  1  0  0  0  0 
 11 12  2  0  0  0  0 
 12 13  1  0  0  0  0 
 13 14  2  0  0  0  0 
  6 14  1  0  0  0  0 
  9 14  1  0  0  0  0 
M  END
> <SMILES>
OS(=O)(=O)Oc1c[nH]c2ccccc12

$$$$

  CDK     01261921162D

 15 16  0  0  1  0  0  0  0  0999 V2000
    5.4015   -4.4058    0.0000 N   0  0  0  0  0  0  0  0  0  0  0  0
    4.0987   -3.6622    0.0000 C   0  0  0  0  0  0  0  0  0  0  0  0
    2.7892   -4.4304    0.0000 N   0  0  0  0  0  0  0  0  0  0  0  0
    1.4902   -3.6804    0.0000 C   0  0  0  0  0  0  0  0  0  0  0  0
    0.1923   -4.4323    0.0000 O   0  0  0  0  0  0  0  0  0  0  0  0
    1.4857   -2.1882    0.0000 N   0  0  0  0  0  0  0  0  0  0  0  0
    2.7692   -1.4050    0.0000 C   0  0  0  0  0  0  0  0  0  0  0  0
    4.0942   -2.1700    0.0000 C   0  0  0  0  0  0  0  0  0  0  0  0
    0.1765   -1.4560    0.0000 C   0  0  2  0  0  0  0  0  0  0  0  0
   -0.0006    0.0335    0.0000 C   0  0  0  0  0  0  0  0  0  0  0  0
   -1.4720    0.3253    0.0000 S   0  0  0  0  0  0  0  0  0  0  0  0
   -2.2042   -0.9838    0.0000 C   0  0  2  0  0  0  0  0  0  0  0  0
   -3.6937   -1.1609    0.0000 C   0  0  0  0  0  0  0  0  0  0  0  0
   -4.5918    0.0405    0.0000 O   0  0  0  0  0  0  0  0  0  0  0  0
   -1.1854   -2.0847    0.0000 O   0  0  0  0  0  0  0  0  0  0  0  0
  1  2  1  0  0  0  0 
  2  3  2  0  0  0  0 
  3  4  1  0  0  0  0 
  4  5  2  0  0  0  0 
  4  6  1  0  0  0  0 
  6  7  1  0  0  0  0 
  7  8  2  0  0  0  0 
  2  8  1  0  0  0  0 
  9  6  1  1  0  0  0 
  9 10  1  0  0  0  0 
 10 11  1  0  0  0  0 
 11 12  1  0  0  0  0 
 12 13  1  1  0  0  0 
 13 14  1  0  0  0  0 
 12 15  1  0  0  0  0 
  9 15  1  0  0  0  0 
M  END
> <SMILES>
NC1=NC(=O)N(C=C1)[C@@H]2CS[C@H](CO)O2

$$$$

  CDK     01261921162D

 28 30  0  0  1  0  0  0  0  0999 V2000
    3.8989   -1.5002    0.0000 C   0  0  0  0  0  0  0  0  0  0  0  0
    2.6000   -0.7500    0.0000 C   0  0  2  0  0  0  0  0  0  0  0  0
    1.3000   -1.5000    0.0000 C   0  0  0  0  0  0  0  0  0  0  0  0
    0.0000   -0.7500    0.0000 C   0  0  0  0  0  0  0  0  0  0  0  0
   -1.3000   -1.5000    0.0000 C   0  0  0  0  0  0  0  0  0  0  0  0
   -1.3000   -3.0000    0.0000 Cl  0  0  0  0  0  0  0  0  0  0  0  0
   -2.6000   -0.7500    0.0000 C   0  0  0  0  0  0  0  0  0  0  0  0
   -2.6000    0.7500    0.0000 C   0  0  0  0  0  0  0  0  0  0  0  0
   -3.8989    1.5002    0.0000 C   0  0  0  0  0  0  0  0  0  0  0  0
   -3.8987    3.0002    0.0000 O   0  0  0  0  0  0  0  0  0  0  0  0
   -5.1981    0.7504    0.0000 N   0  0  0  0  0  0  0  0  0  0  0  0
   -6.4970    1.5006    0.0000 C   0  0  1  0  0  0  0  0  0  0  0  0
   -7.7962    0.7508    0.0000 C   0  0  0  0  0  0  0  0  0  0  0  0
   -9.0951    1.5010    0.0000 C   0  0  0  0  0  0  0  0  0  0  0  0
  -10.3947    0.7504    0.0000 C   0  0  0  0  0  0  0  0  0  0  0  0
  -11.6936    1.5006    0.0000 C   0  0  0  0  0  0  0  0  0  0  0  0
  -11.6929    3.0015    0.0000 C   0  0  0  0  0  0  0  0  0  0  0  0
  -10.3933    3.7521    0.0000 C   0  0  0  0  0  0  0  0  0  0  0  0
   -9.0943    3.0019    0.0000 C   0  0  0  0  0  0  0  0  0  0  0  0
   -6.4968    3.0006    0.0000 C   0  0  0  0  0  0  0  0  0  0  0  0
   -5.1976    3.7504    0.0000 O   0  0  0  0  0  0  0  0  0  0  0  0
   -7.7957    3.7508    0.0000 O   0  0  0  0  0  0  0  0  0  0  0  0
   -1.3000    1.5000    0.0000 C   0  0  0  0  0  0  0  0  0  0  0  0
   -1.3000    3.0000    0.0000 O   0  0  0  0  0  0  0  0  0  0  0  0
    0.0000    0.7500    0.0000 C   0  0  0  0  0  0  0  0  0  0  0  0
    1.3000    1.5000    0.0000 C   0  0  0  0  0  0  0  0  0  0  0  0
    1.3000    3.0000    0.0000 O   0  0  0  0  0  0  0  0  0  0  0  0
    2.6000    0.7500    0.0000 O   0  0  0  0  0  0  0  0  0  0  0  0
  2  1  1  6  0  0  0 
  2  3  1  0  0  0  0 
  3  4  1  0  0  0  0 
  4  5  2  0  0  0  0 
  5  6  1  0  0  0  0 
  5  7  1  0  0  0  0 
  7  8  2  0  0  0  0 
  8  9  1  0  0  0  0 
  9 10  2  0  0  0  0 
  9 11  1  0  0  0  0 
 12 11  1  1  0  0  0 
 12 13  1  0  0  0  0 
 13 14  1  0  0  0  0 
 14 15  2  0  0  0  0 
 15 16  1  0  0  0  0 
 16 17  2  0  0  0  0 
 17 18  1  0  0  0  0 
 18 19  2  0  0  0  0 
 14 19  1  0  0  0  0 
 12 20  1  0  0  0  0 
 20 21  2  0  0  0  0 
 20 22  1  0  0  0  0 
  8 23  1  0  0  0  0 
 23 24  1  0  0  0  0 
 23 25  2  0  0  0  0 
  4 25  1  0  0  0  0 
 25 26  1  0  0  0  0 
 26 27  2  0  0  0  0 
 26 28  1  0  0  0  0 
  2 28  1  0  0  0  0 
M  END
> <SMILES>
C[C@@H]1Cc2c(Cl)cc(C(=O)N[C@@H](Cc3ccccc3)C(=O)O)c(O)c2C(=O)O1

$$$$

  CDK     01261921162D

 19 20  0  0  1  0  0  0  0  0999 V2000
   -5.3075    3.0646    0.0000 C   0  0  0  0  0  0  0  0  0  0  0  0
   -4.0084    2.3148    0.0000 C   0  0  0  0  0  0  0  0  0  0  0  0
   -2.7093    3.0648    0.0000 C   0  0  0  0  0  0  0  0  0  0  0  0
   -1.4098    2.3140    0.0000 N   0  0  0  0  0  0  0  0  0  0  0  0
   -0.1108    3.0640    0.0000 C   0  0  1  0  0  0  0  0  0  0  0  0
    1.2508    2.4523    0.0000 C   0  0  0  0  0  0  0  0  0  0  0  0
    2.2572    3.5645    0.0000 C   0  0  2  0  0  0  0  0  0  0  0  0
    3.7487    3.4046    0.0000 N   0  0  0  0  0  0  0  0  0  0  0  0
    4.6328    4.6163    0.0000 N   0  3  0  0  0  0  0  0  0  0  0  0
    5.5170    5.8281    0.0000 N   0  5  0  0  0  0  0  0  0  0  0  0
    1.5130    4.8583    0.0000 C   0  0  1  0  0  0  0  0  0  0  0  0
    2.1299    6.2256    0.0000 C   0  0  0  0  0  0  0  0  0  0  0  0
    3.6224    6.3750    0.0000 O   0  0  0  0  0  0  0  0  0  0  0  0
    0.0412    4.5583    0.0000 O   0  0  0  0  0  0  0  0  0  0  0  0
   -1.4093    0.8131    0.0000 C   0  0  0  0  0  0  0  0  0  0  0  0
   -0.1102    0.0633    0.0000 O   0  0  0  0  0  0  0  0  0  0  0  0
   -2.7084    0.0631    0.0000 N   0  0  0  0  0  0  0  0  0  0  0  0
   -4.0079    0.8140    0.0000 C   0  0  0  0  0  0  0  0  0  0  0  0
   -5.3069    0.0640    0.0000 O   0  0  0  0  0  0  0  0  0  0  0  0
  1  2  1  0  0  0  0 
  2  3  2  0  0  0  0 
  3  4  1  0  0  0  0 
  5  4  1  6  0  0  0 
  5  6  1  0  0  0  0 
  6  7  1  0  0  0  0 
  7  8  1  1  0  0  0 
  8  9  2  0  0  0  0 
  9 10  2  0  0  0  0 
  7 11  1  0  0  0  0 
 11 12  1  6  0  0  0 
 12 13  1  0  0  0  0 
 11 14  1  0  0  0  0 
  5 14  1  0  0  0  0 
  4 15  1  0  0  0  0 
 15 16  2  0  0  0  0 
 15 17  1  0  0  0  0 
 17 18  1  0  0  0  0 
  2 18  1  0  0  0  0 
 18 19  2  0  0  0  0 
M  CHG  1   9   1
M  CHG  1  10  -1
M  END
> <SMILES>
CC1=CN([C@H]2C[C@H](N=[N+]=[N-])[C@@H](CO)O2)C(=O)NC1=O

$$$$

  CDK     01261921162D

 28 31  0  0  0  0  0  0  0  0999 V2000
   -2.5987    7.5002    0.0000 O   0  0  0  0  0  0  0  0  0  0  0  0
   -2.5989    6.0002    0.0000 C   0  0  0  0  0  0  0  0  0  0  0  0
   -3.8981    5.2504    0.0000 O   0  0  0  0  0  0  0  0  0  0  0  0
   -1.3000    5.2500    0.0000 C   0  0  0  0  0  0  0  0  0  0  0  0
    0.0000    6.0000    0.0000 C   0  0  0  0  0  0  0  0  0  0  0  0
    1.3000    5.2500    0.0000 C   0  0  0  0  0  0  0  0  0  0  0  0
    1.3000    3.7500    0.0000 C   0  0  0  0  0  0  0  0  0  0  0  0
    2.5989    2.9998    0.0000 C   0  0  0  0  0  0  0  0  0  0  0  0
    2.5987    1.4998    0.0000 O   0  0  0  0  0  0  0  0  0  0  0  0
    3.8981    3.7496    0.0000 O   0  0  0  0  0  0  0  0  0  0  0  0
    0.0000    3.0000    0.0000 C   0  0  0  0  0  0  0  0  0  0  0  0
   -1.3000    3.7500    0.0000 C   0  0  0  0  0  0  0  0  0  0  0  0
   -0.0000    0.5400    0.0000 C   0  0  0  0  0  0  0  0  0  0  0  0
    1.3000   -0.2100    0.0000 C   0  0  0  0  0  0  0  0  0  0  0  0
    2.6000    0.5400    0.0000 C   0  0  0  0  0  0  0  0  0  0  0  0
    3.9000   -0.2100    0.0000 C   0  0  0  0  0  0  0  0  0  0  0  0
    3.9000   -1.7100    0.0000 C   0  0  0  0  0  0  0  0  0  0  0  0
    5.1989   -2.4602    0.0000 O   0  0  0  0  0  0  0  0  0  0  0  0
    2.6000   -2.4600    0.0000 C   0  0  0  0  0  0  0  0  0  0  0  0
    1.3000   -1.7100    0.0000 C   0  0  0  0  0  0  0  0  0  0  0  0
   -0.0000   -2.4600    0.0000 O   0  0  0  0  0  0  0  0  0  0  0  0
   -1.3000   -1.7100    0.0000 C   0  0  0  0  0  0  0  0  0  0  0  0
   -2.6000   -2.4600    0.0000 C   0  0  0  0  0  0  0  0  0  0  0  0
   -3.9000   -1.7100    0.0000 C   0  0  0  0  0  0  0  0  0  0  0  0
   -5.1989   -2.4602    0.0000 O   0  0  0  0  0  0  0  0  0  0  0  0
   -3.9000   -0.2100    0.0000 C   0  0  0  0  0  0  0  0  0  0  0  0
   -2.6000    0.5400    0.0000 C   0  0  0  0  0  0  0  0  0  0  0  0
   -1.3000   -0.2100    0.0000 C   0  0  0  0  0  0  0  0  0  0  0  0
  1  2  1  0  0  0  0 
  2  3  2  0  0  0  0 
  2  4  1  0  0  0  0 
  4  5  2  0  0  0  0 
  5  6  1  0  0  0  0 
  6  7  2  0  0  0  0 
  7  8  1  0  0  0  0 
  8  9  2  0  0  0  0 
  8 10  1  0  0  0  0 
  7 11  1  0  0  0  0 
 11 12  2  0  0  0  0 
  4 12  1  0  0  0  0 
 11 13  1  0  0  0  0 
 13 14  2  0  0  0  0 
 14 15  1  0  0  0  0 
 15 16  2  0  0  0  0 
 16 17  1  0  0  0  0 
 17 18  2  0  0  0  0 
 17 19  1  0  0  0  0 
 19 20  2  0  0  0  0 
 14 20  1  0  0  0  0 
 20 21  1  0  0  0  0 
 21 22  1  0  0  0  0 
 22 23  2  0  0  0  0 
 23 24  1  0  0  0  0 
 24 25  1  0  0  0  0 
 24 26  2  0  0  0  0 
 26 27  1  0  0  0  0 
 27 28  2  0  0  0  0 
 13 28  1  0  0  0  0 
 22 28  1  0  0  0  0 
M  END
> <SMILES>
OC(=O)c1ccc(C(=O)O)c(c1)C2=C3C=CC(=O)C=C3Oc4cc(O)ccc24

$$$$

  CDK     01261921162D

 17 17  0  0  0  0  0  0  0  0999 V2000
    4.3810   -2.7764    0.0000 C   0  0  0  0  0  0  0  0  0  0  0  0
    2.9533   -2.3164    0.0000 C   0  0  0  0  0  0  0  0  0  0  0  0
    2.6377   -0.8500    0.0000 C   0  0  0  0  0  0  0  0  0  0  0  0
    1.2100   -0.3900    0.0000 C   0  0  0  0  0  0  0  0  0  0  0  0
   -0.0000   -1.2800    0.0000 O   0  0  0  0  0  0  0  0  0  0  0  0
   -1.2100   -0.3900    0.0000 C   0  0  0  0  0  0  0  0  0  0  0  0
   -2.6377   -0.8500    0.0000 C   0  0  0  0  0  0  0  0  0  0  0  0
   -3.7499    0.1565    0.0000 C   0  0  0  0  0  0  0  0  0  0  0  0
   -5.1777   -0.3035    0.0000 C   0  0  0  0  0  0  0  0  0  0  0  0
   -5.4932   -1.7699    0.0000 O   0  0  0  0  0  0  0  0  0  0  0  0
   -6.2899    0.7030    0.0000 O   0  0  0  0  0  0  0  0  0  0  0  0
   -0.7500    1.0300    0.0000 C   0  0  0  0  0  0  0  0  0  0  0  0
   -1.6322    2.2431    0.0000 C   0  0  0  0  0  0  0  0  0  0  0  0
   -3.1239    2.0857    0.0000 O   0  0  0  0  0  0  0  0  0  0  0  0
   -1.0227    3.6137    0.0000 O   0  0  0  0  0  0  0  0  0  0  0  0
    0.7500    1.0300    0.0000 C   0  0  0  0  0  0  0  0  0  0  0  0
    1.6322    2.2431    0.0000 C   0  0  0  0  0  0  0  0  0  0  0  0
  1  2  1  0  0  0  0 
  2  3  1  0  0  0  0 
  3  4  1  0  0  0  0 
  4  5  1  0  0  0  0 
  5  6  1  0  0  0  0 
  6  7  1  0  0  0  0 
  7  8  1  0  0  0  0 
  8  9  1  0  0  0  0 
  9 10  2  0  0  0  0 
  9 11  1  0  0  0  0 
  6 12  2  0  0  0  0 
 12 13  1  0  0  0  0 
 13 14  2  0  0  0  0 
 13 15  1  0  0  0  0 
 12 16  1  0  0  0  0 
  4 16  2  0  0  0  0 
 16 17  1  0  0  0  0 
M  END
> <SMILES>
CCCc1oc(CCC(=O)O)c(C(=O)O)c1C

$$$$

  CDK     01261921162D

 24 27  0  0  0  0  0  0  0  0999 V2000
    5.1981    0.7504    0.0000 O   0  0  0  0  0  0  0  0  0  0  0  0
    3.8989    1.5002    0.0000 C   0  0  0  0  0  0  0  0  0  0  0  0
    3.8987    3.0002    0.0000 O   0  0  0  0  0  0  0  0  0  0  0  0
    2.6000    0.7500    0.0000 C   0  0  0  0  0  0  0  0  0  0  0  0
    2.6000   -0.7500    0.0000 C   0  0  0  0  0  0  0  0  0  0  0  0
    1.3000   -1.5000    0.0000 N   0  0  0  0  0  0  0  0  0  0  0  0
    1.3000   -3.0000    0.0000 C   0  0  0  0  0  0  0  0  0  0  0  0
    2.0506   -4.2996    0.0000 C   0  0  0  0  0  0  0  0  0  0  0  0
    0.5498   -4.2989    0.0000 C   0  0  0  0  0  0  0  0  0  0  0  0
   -0.0000   -0.7500    0.0000 C   0  0  0  0  0  0  0  0  0  0  0  0
   -1.3000   -1.5000    0.0000 C   0  0  0  0  0  0  0  0  0  0  0  0
   -2.6000   -0.7500    0.0000 C   0  0  0  0  0  0  0  0  0  0  0  0
   -3.8989   -1.5002    0.0000 N   0  0  0  0  0  0  0  0  0  0  0  0
   -3.8982   -3.0010    0.0000 C   0  0  0  0  0  0  0  0  0  0  0  0
   -5.1971   -3.7512    0.0000 C   0  0  0  0  0  0  0  0  0  0  0  0
   -6.4968   -3.0006    0.0000 N   0  0  0  0  0  0  0  0  0  0  0  0
   -6.4975   -1.4998    0.0000 C   0  0  0  0  0  0  0  0  0  0  0  0
   -5.1986   -0.7496    0.0000 C   0  0  0  0  0  0  0  0  0  0  0  0
   -2.6000    0.7500    0.0000 C   0  0  0  0  0  0  0  0  0  0  0  0
   -3.8989    1.5002    0.0000 F   0  0  0  0  0  0  0  0  0  0  0  0
   -1.3000    1.5000    0.0000 C   0  0  0  0  0  0  0  0  0  0  0  0
   -0.0000    0.7500    0.0000 C   0  0  0  0  0  0  0  0  0  0  0  0
    1.3000    1.5000    0.0000 C   0  0  0  0  0  0  0  0  0  0  0  0
    1.3000    3.0000    0.0000 O   0  0  0  0  0  0  0  0  0  0  0  0
  1  2  1  0  0  0  0 
  2  3  2  0  0  0  0 
  2  4  1  0  0  0  0 
  4  5  2  0  0  0  0 
  5  6  1  0  0  0  0 
  6  7  1  0  0  0  0 
  7  8  1  0  0  0  0 
  8  9  1  0  0  0  0 
  7  9  1  0  0  0  0 
  6 10  1  0  0  0  0 
 10 11  2  0  0  0  0 
 11 12  1  0  0  0  0 
 12 13  1  0  0  0  0 
 13 14  1  0  0  0  0 
 14 15  1  0  0  0  0 
 15 16  1  0  0  0  0 
 16 17  1  0  0  0  0 
 17 18  1  0  0  0  0 
 13 18  1  0  0  0  0 
 12 19  2  0  0  0  0 
 19 20  1  0  0  0  0 
 19 21  1  0  0  0  0 
 21 22  2  0  0  0  0 
 10 22  1  0  0  0  0 
 22 23  1  0  0  0  0 
  4 23  1  0  0  0  0 
 23 24  2  0  0  0  0 
M  END
> <SMILES>
OC(=O)C1=CN(C2CC2)c3cc(N4CCNCC4)c(F)cc3C1=O

$$$$

  CDK     01261921162D

 19 19  0  0  0  0  0  0  0  0999 V2000
   -7.7951   -1.5010    0.0000 C   0  0  0  0  0  0  0  0  0  0  0  0
   -6.4962   -0.7508    0.0000 C   0  0  0  0  0  0  0  0  0  0  0  0
   -5.1970   -1.5006    0.0000 C   0  0  0  0  0  0  0  0  0  0  0  0
   -3.8981   -0.7504    0.0000 N   0  0  0  0  0  0  0  0  0  0  0  0
   -3.8983    0.7496    0.0000 C   0  0  0  0  0  0  0  0  0  0  0  0
   -5.1975    1.4994    0.0000 C   0  0  0  0  0  0  0  0  0  0  0  0
   -6.4964    0.7492    0.0000 C   0  0  0  0  0  0  0  0  0  0  0  0
   -2.5989   -1.5002    0.0000 S   0  0  0  0  0  0  0  0  0  0  0  0
   -3.5629   -2.6494    0.0000 O   0  0  0  0  0  0  0  0  0  0  0  0
   -1.6346   -2.6491    0.0000 O   0  0  0  0  0  0  0  0  0  0  0  0
   -1.3000   -0.7500    0.0000 C   0  0  0  0  0  0  0  0  0  0  0  0
   -1.3000    0.7500    0.0000 C   0  0  0  0  0  0  0  0  0  0  0  0
    0.0000    1.5000    0.0000 C   0  0  0  0  0  0  0  0  0  0  0  0
    1.3000    0.7500    0.0000 C   0  0  0  0  0  0  0  0  0  0  0  0
    1.3000   -0.7500    0.0000 C   0  0  0  0  0  0  0  0  0  0  0  0
    0.0000   -1.5000    0.0000 C   0  0  0  0  0  0  0  0  0  0  0  0
    2.5989    1.5002    0.0000 C   0  0  0  0  0  0  0  0  0  0  0  0
    2.5987    3.0002    0.0000 O   0  0  0  0  0  0  0  0  0  0  0  0
    3.8981    0.7504    0.0000 O   0  0  0  0  0  0  0  0  0  0  0  0
  1  2  1  0  0  0  0 
  2  3  1  0  0  0  0 
  3  4  1  0  0  0  0 
  4  5  1  0  0  0  0 
  5  6  1  0  0  0  0 
  6  7  1  0  0  0  0 
  4  8  1  0  0  0  0 
  8  9  2  0  0  0  0 
  8 10  2  0  0  0  0 
  8 11  1  0  0  0  0 
 11 12  2  0  0  0  0 
 12 13  1  0  0  0  0 
 13 14  2  0  0  0  0 
 14 15  1  0  0  0  0 
 15 16  2  0  0  0  0 
 11 16  1  0  0  0  0 
 14 17  1  0  0  0  0 
 17 18  2  0  0  0  0 
 17 19  1  0  0  0  0 
M  END
> <SMILES>
CCCN(CCC)S(=O)(=O)c1ccc(cc1)C(=O)O

$$$$

  CDK     01261921162D

 30 33  0  0  0  0  0  0  0  0999 V2000
   -7.6875    2.8784    0.0000 C   0  0  0  0  0  0  0  0  0  0  0  0
   -6.3212    3.4974    0.0000 C   0  0  0  0  0  0  0  0  0  0  0  0
   -5.1019    2.6236    0.0000 C   0  0  0  0  0  0  0  0  0  0  0  0
   -3.7356    3.2426    0.0000 C   0  0  0  0  0  0  0  0  0  0  0  0
   -2.5164    2.3688    0.0000 C   0  0  0  0  0  0  0  0  0  0  0  0
   -2.5117    0.8761    0.0000 N   0  0  0  0  0  0  0  0  0  0  0  0
   -1.0833    0.4183    0.0000 C   0  0  0  0  0  0  0  0  0  0  0  0
   -0.6134   -1.0062    0.0000 Cl  0  0  0  0  0  0  0  0  0  0  0  0
   -0.2118    1.6302    0.0000 C   0  0  0  0  0  0  0  0  0  0  0  0
    1.2882    1.6325    0.0000 C   0  0  0  0  0  0  0  0  0  0  0  0
    2.0401    0.3346    0.0000 O   0  0  0  0  0  0  0  0  0  0  0  0
   -1.0925    2.8470    0.0000 N   0  0  0  0  0  0  0  0  0  0  0  0
   -0.6347    4.2754    0.0000 C   0  0  0  0  0  0  0  0  0  0  0  0
    0.8313    4.5932    0.0000 C   0  0  0  0  0  0  0  0  0  0  0  0
    1.2896    6.0223    0.0000 C   0  0  0  0  0  0  0  0  0  0  0  0
    2.7562    6.3410    0.0000 C   0  0  0  0  0  0  0  0  0  0  0  0
    3.7645    5.2304    0.0000 C   0  0  0  0  0  0  0  0  0  0  0  0
    3.3062    3.8013    0.0000 C   0  0  0  0  0  0  0  0  0  0  0  0
    1.8396    3.4827    0.0000 C   0  0  0  0  0  0  0  0  0  0  0  0
    5.2305    5.5482    0.0000 C   0  0  0  0  0  0  0  0  0  0  0  0
    6.2349    4.4446    0.0000 C   0  0  0  0  0  0  0  0  0  0  0  0
    7.7014    4.7599    0.0000 C   0  0  0  0  0  0  0  0  0  0  0  0
    8.1635    6.1787    0.0000 C   0  0  0  0  0  0  0  0  0  0  0  0
    7.1570    7.2921    0.0000 C   0  0  0  0  0  0  0  0  0  0  0  0
    5.6905    6.9768    0.0000 C   0  0  0  0  0  0  0  0  0  0  0  0
    4.6840    8.0890    0.0000 C   0  0  0  0  0  0  0  0  0  0  0  0
    3.1911    7.9232    0.0000 N   0  0  0  0  0  0  0  0  0  0  0  0
    2.5883    9.2990    0.0000 N   0  0  0  0  0  0  0  0  0  0  0  0
    3.6966   10.2987    0.0000 N   0  0  0  0  0  0  0  0  0  0  0  0
    4.9957    9.5487    0.0000 N   0  0  0  0  0  0  0  0  0  0  0  0
  1  2  1  0  0  0  0 
  2  3  1  0  0  0  0 
  3  4  1  0  0  0  0 
  4  5  1  0  0  0  0 
  5  6  2  0  0  0  0 
  6  7  1  0  0  0  0 
  7  8  1  0  0  0  0 
  7  9  2  0  0  0  0 
  9 10  1  0  0  0  0 
 10 11  1  0  0  0  0 
  9 12  1  0  0  0  0 
  5 12  1  0  0  0  0 
 12 13  1  0  0  0  0 
 13 14  1  0  0  0  0 
 14 15  2  0  0  0  0 
 15 16  1  0  0  0  0 
 16 17  2  0  0  0  0 
 17 18  1  0  0  0  0 
 18 19  2  0  0  0  0 
 14 19  1  0  0  0  0 
 17 20  1  0  0  0  0 
 20 21  2  0  0  0  0 
 21 22  1  0  0  0  0 
 22 23  2  0  0  0  0 
 23 24  1  0  0  0  0 
 24 25  2  0  0  0  0 
 20 25  1  0  0  0  0 
 25 26  1  0  0  0  0 
 26 27  2  0  0  0  0 
 27 28  1  0  0  0  0 
 28 29  2  0  0  0  0 
 29 30  1  0  0  0  0 
 26 30  1  0  0  0  0 
M  END
> <SMILES>
CCCCc1nc(Cl)c(CO)n1Cc2ccc(cc2)c3ccccc3c4nnn[nH]4

$$$$

  CDK     01261921162D

 14 14  0  0  0  0  0  0  0  0999 V2000
   -5.9865    5.8676    0.0000 O   0  0  0  0  0  0  0  0  0  0  0  0
   -4.4865    5.8676    0.0000 C   0  0  0  0  0  0  0  0  0  0  0  0
   -3.7365    7.1666    0.0000 O   0  0  0  0  0  0  0  0  0  0  0  0
   -3.7365    4.5686    0.0000 C   0  0  0  0  0  0  0  0  0  0  0  0
   -2.2365    4.5686    0.0000 C   0  0  0  0  0  0  0  0  0  0  0  0
   -1.4865    3.2695    0.0000 N   0  0  0  0  0  0  0  0  0  0  0  0
    0.0135    3.2695    0.0000 C   0  0  0  0  0  0  0  0  0  0  0  0
    0.7635    4.5686    0.0000 O   0  0  0  0  0  0  0  0  0  0  0  0
    0.7635    1.9705    0.0000 C   0  0  0  0  0  0  0  0  0  0  0  0
    2.2644    1.9710    0.0000 C   0  0  0  0  0  0  0  0  0  0  0  0
    3.0144    0.6719    0.0000 C   0  0  0  0  0  0  0  0  0  0  0  0
    2.2635   -0.6276    0.0000 C   0  0  0  0  0  0  0  0  0  0  0  0
    0.7627   -0.6281    0.0000 C   0  0  0  0  0  0  0  0  0  0  0  0
    0.0127    0.6710    0.0000 C   0  0  0  0  0  0  0  0  0  0  0  0
  1  2  1  0  0  0  0 
  2  3  2  0  0  0  0 
  2  4  1  0  0  0  0 
  4  5  1  0  0  0  0 
  5  6  1  0  0  0  0 
  6  7  1  0  0  0  0 
  7  8  2  0  0  0  0 
  7  9  1  0  0  0  0 
  9 10  2  0  0  0  0 
 10 11  1  0  0  0  0 
 11 12  2  0  0  0  0 
 12 13  1  0  0  0  0 
 13 14  2  0  0  0  0 
  9 14  1  0  0  0  0 
M  END
> <SMILES>
OC(=O)CCNC(=O)c1ccccc1

$$$$

  CDK     01261921162D

 17 17  0  0  0  0  0  0  0  0999 V2000
   -6.2250   -3.9424    0.0000 C   0  0  0  0  0  0  0  0  0  0  0  0
   -4.8563   -3.3286    0.0000 N   0  0  0  0  0  0  0  0  0  0  0  0
   -3.6404   -4.2069    0.0000 C   0  0  0  0  0  0  0  0  0  0  0  0
   -2.2718   -3.5930    0.0000 N   0  0  0  0  0  0  0  0  0  0  0  0
   -1.0558   -4.4714    0.0000 C   0  0  0  0  0  0  0  0  0  0  0  0
    0.3128   -3.8575    0.0000 C   0  0  0  0  0  0  0  0  0  0  0  0
    1.5288   -4.7359    0.0000 S   0  0  0  0  0  0  0  0  0  0  0  0
    2.8974   -4.1220    0.0000 C   0  0  0  0  0  0  0  0  0  0  0  0
    4.1133   -5.0004    0.0000 C   0  0  0  0  0  0  0  0  0  0  0  0
    4.1133   -6.5004    0.0000 N   0  0  0  0  0  0  0  0  0  0  0  0
    5.5333   -6.9604    0.0000 C   0  0  0  0  0  0  0  0  0  0  0  0
    6.4133   -5.7504    0.0000 N   0  0  0  0  0  0  0  0  0  0  0  0
    5.5333   -4.5304    0.0000 C   0  0  0  0  0  0  0  0  0  0  0  0
    5.9954   -3.1033    0.0000 C   0  0  0  0  0  0  0  0  0  0  0  0
   -3.7931   -5.6991    0.0000 N   0  0  0  0  0  0  0  0  0  0  0  0
   -5.1617   -6.3130    0.0000 C   0  0  0  0  0  0  0  0  0  0  0  0
   -6.5304   -6.9268    0.0000 N   0  0  0  0  0  0  0  0  0  0  0  0
  1  2  1  0  0  0  0 
  2  3  1  4  0  0  0 
  3  4  2  0  0  0  0 
  4  5  1  0  0  0  0 
  5  6  1  0  0  0  0 
  6  7  1  0  0  0  0 
  7  8  1  0  0  0  0 
  8  9  1  0  0  0  0 
  9 10  1  0  0  0  0 
 10 11  2  0  0  0  0 
 11 12  1  0  0  0  0 
 12 13  1  0  0  0  0 
  9 13  2  0  0  0  0 
 13 14  1  0  0  0  0 
  3 15  1  0  0  0  0 
 15 16  1  0  0  0  0 
 16 17  3  0  0  0  0 
M  END
> <SMILES>
CNC(=N/CCSCc1nc[nH]c1C)NC#N

$$$$

  CDK     01261921162D

 22 25  0  0  0  0  0  0  0  0999 V2000
   -4.5467    2.6340    0.0000 O   0  0  0  0  0  0  0  0  0  0  0  0
   -3.2500    1.8800    0.0000 C   0  0  0  0  0  0  0  0  0  0  0  0
   -1.9500    2.6200    0.0000 C   0  0  0  0  0  0  0  0  0  0  0  0
   -0.6500    1.8800    0.0000 C   0  0  0  0  0  0  0  0  0  0  0  0
    0.6500    2.6200    0.0000 C   0  0  0  0  0  0  0  0  0  0  0  0
    0.6500    4.1200    0.0000 O   0  0  0  0  0  0  0  0  0  0  0  0
    1.9500    1.8800    0.0000 O   0  0  0  0  0  0  0  0  0  0  0  0
    1.9500    0.3800    0.0000 C   0  0  0  0  0  0  0  0  0  0  0  0
    3.2500   -0.3800    0.0000 C   0  0  0  0  0  0  0  0  0  0  0  0
    4.5511    0.3665    0.0000 O   0  0  0  0  0  0  0  0  0  0  0  0
    3.2500   -1.8800    0.0000 C   0  0  0  0  0  0  0  0  0  0  0  0
    4.5467   -2.6340    0.0000 O   0  0  0  0  0  0  0  0  0  0  0  0
    1.9500   -2.6200    0.0000 C   0  0  0  0  0  0  0  0  0  0  0  0
    0.6500   -1.8800    0.0000 C   0  0  0  0  0  0  0  0  0  0  0  0
   -0.6500   -2.6200    0.0000 C   0  0  0  0  0  0  0  0  0  0  0  0
   -0.6500   -4.1200    0.0000 O   0  0  0  0  0  0  0  0  0  0  0  0
   -1.9500   -1.8800    0.0000 O   0  0  0  0  0  0  0  0  0  0  0  0
   -1.9500   -0.3800    0.0000 C   0  0  0  0  0  0  0  0  0  0  0  0
   -3.2500    0.3800    0.0000 C   0  0  0  0  0  0  0  0  0  0  0  0
   -4.5511   -0.3665    0.0000 O   0  0  0  0  0  0  0  0  0  0  0  0
   -0.6500    0.3800    0.0000 C   0  0  0  0  0  0  0  0  0  0  0  0
    0.6500   -0.3800    0.0000 C   0  0  0  0  0  0  0  0  0  0  0  0
  1  2  1  0  0  0  0 
  2  3  2  0  0  0  0 
  3  4  1  0  0  0  0 
  4  5  1  0  0  0  0 
  5  6  2  0  0  0  0 
  5  7  1  0  0  0  0 
  7  8  1  0  0  0  0 
  8  9  2  0  0  0  0 
  9 10  1  0  0  0  0 
  9 11  1  0  0  0  0 
 11 12  1  0  0  0  0 
 11 13  2  0  0  0  0 
 13 14  1  0  0  0  0 
 14 15  1  0  0  0  0 
 15 16  2  0  0  0  0 
 15 17  1  0  0  0  0 
 17 18  1  0  0  0  0 
 18 19  2  0  0  0  0 
  2 19  1  0  0  0  0 
 19 20  1  0  0  0  0 
 18 21  1  0  0  0  0 
  4 21  2  0  0  0  0 
 21 22  1  0  0  0  0 
  8 22  1  0  0  0  0 
 14 22  2  0  0  0  0 
M  END
> <SMILES>
Oc1cc2C(=O)Oc3c(O)c(O)cc4C(=O)Oc(c1O)c2c34

$$$$

  CDK     01261921162D

 19 20  0  0  0  0  0  0  0  0999 V2000
    3.5711   -3.1901    0.0000 C   0  0  0  0  0  0  0  0  0  0  0  0
    3.5686   -1.6901    0.0000 C   0  0  0  0  0  0  0  0  0  0  0  0
    4.8664   -0.9379    0.0000 C   0  0  0  0  0  0  0  0  0  0  0  0
    4.8639    0.5621    0.0000 O   0  0  0  0  0  0  0  0  0  0  0  0
    6.1667   -1.6857    0.0000 O   0  0  0  0  0  0  0  0  0  0  0  0
    2.2683   -0.9423    0.0000 C   0  0  0  0  0  0  0  0  0  0  0  0
    2.2638    0.5499    0.0000 C   0  0  0  0  0  0  0  0  0  0  0  0
    0.9648    1.2999    0.0000 C   0  0  0  0  0  0  0  0  0  0  0  0
   -0.3298    0.5577    0.0000 C   0  0  0  0  0  0  0  0  0  0  0  0
   -0.3302   -0.9431    0.0000 C   0  0  0  0  0  0  0  0  0  0  0  0
    0.9688   -1.6931    0.0000 C   0  0  0  0  0  0  0  0  0  0  0  0
   -1.6294   -1.6929    0.0000 C   0  0  0  0  0  0  0  0  0  0  0  0
   -1.6296   -3.1929    0.0000 O   0  0  0  0  0  0  0  0  0  0  0  0
   -2.9283   -0.9427    0.0000 C   0  0  0  0  0  0  0  0  0  0  0  0
   -4.2280   -1.6933    0.0000 C   0  0  0  0  0  0  0  0  0  0  0  0
   -5.5269   -0.9431    0.0000 C   0  0  0  0  0  0  0  0  0  0  0  0
   -5.5262    0.5577    0.0000 C   0  0  0  0  0  0  0  0  0  0  0  0
   -4.2265    1.3084    0.0000 C   0  0  0  0  0  0  0  0  0  0  0  0
   -2.9276    0.5582    0.0000 C   0  0  0  0  0  0  0  0  0  0  0  0
  1  2  1  0  0  0  0 
  2  3  1  0  0  0  0 
  3  4  2  0  0  0  0 
  3  5  1  0  0  0  0 
  2  6  1  0  0  0  0 
  6  7  2  0  0  0  0 
  7  8  1  0  0  0  0 
  8  9  2  0  0  0  0 
  9 10  1  0  0  0  0 
 10 11  2  0  0  0  0 
  6 11  1  0  0  0  0 
 10 12  1  0  0  0  0 
 12 13  2  0  0  0  0 
 12 14  1  0  0  0  0 
 14 15  2  0  0  0  0 
 15 16  1  0  0  0  0 
 16 17  2  0  0  0  0 
 17 18  1  0  0  0  0 
 18 19  2  0  0  0  0 
 14 19  1  0  0  0  0 
M  END
> <SMILES>
CC(C(=O)O)c1cccc(c1)C(=O)c2ccccc2

$$$$

  CDK     01261921162D

 22 24  0  0  0  0  0  0  0  0999 V2000
    4.8500   -1.2990    0.0000 C   0  0  0  0  0  0  0  0  0  0  0  0
    4.1000   -0.0000    0.0000 C   0  0  0  0  0  0  0  0  0  0  0  0
    2.6000    0.0000    0.0000 C   0  0  0  0  0  0  0  0  0  0  0  0
    1.7200   -1.2100    0.0000 O   0  0  0  0  0  0  0  0  0  0  0  0
    0.2900   -0.7500    0.0000 C   0  0  0  0  0  0  0  0  0  0  0  0
   -1.0100   -1.5000    0.0000 C   0  0  0  0  0  0  0  0  0  0  0  0
   -2.3100   -0.7500    0.0000 C   0  0  0  0  0  0  0  0  0  0  0  0
   -2.3100    0.7500    0.0000 C   0  0  0  0  0  0  0  0  0  0  0  0
   -1.0100    1.5000    0.0000 C   0  0  0  0  0  0  0  0  0  0  0  0
    0.2900    0.7500    0.0000 C   0  0  0  0  0  0  0  0  0  0  0  0
    1.7200    1.2100    0.0000 C   0  0  0  0  0  0  0  0  0  0  0  0
    2.1853    2.6360    0.0000 C   0  0  0  0  0  0  0  0  0  0  0  0
    1.1830    3.7520    0.0000 O   0  0  0  0  0  0  0  0  0  0  0  0
    3.6529    2.9461    0.0000 C   0  0  0  0  0  0  0  0  0  0  0  0
    4.1180    4.3730    0.0000 C   0  0  0  0  0  0  0  0  0  0  0  0
    5.5856    4.6831    0.0000 C   0  0  0  0  0  0  0  0  0  0  0  0
    6.0511    6.1090    0.0000 Br  0  0  0  0  0  0  0  0  0  0  0  0
    6.5881    3.5662    0.0000 C   0  0  0  0  0  0  0  0  0  0  0  0
    8.0557    3.8763    0.0000 O   0  0  0  0  0  0  0  0  0  0  0  0
    6.1230    2.1393    0.0000 C   0  0  0  0  0  0  0  0  0  0  0  0
    7.1255    1.0235    0.0000 Br  0  0  0  0  0  0  0  0  0  0  0  0
    4.6554    1.8292    0.0000 C   0  0  0  0  0  0  0  0  0  0  0  0
  1  2  1  0  0  0  0 
  2  3  1  0  0  0  0 
  3  4  1  0  0  0  0 
  4  5  1  0  0  0  0 
  5  6  2  0  0  0  0 
  6  7  1  0  0  0  0 
  7  8  2  0  0  0  0 
  8  9  1  0  0  0  0 
  9 10  2  0  0  0  0 
  5 10  1  0  0  0  0 
 10 11  1  0  0  0  0 
  3 11  2  0  0  0  0 
 11 12  1  0  0  0  0 
 12 13  2  0  0  0  0 
 12 14  1  0  0  0  0 
 14 15  2  0  0  0  0 
 15 16  1  0  0  0  0 
 16 17  1  0  0  0  0 
 16 18  2  0  0  0  0 
 18 19  1  0  0  0  0 
 18 20  1  0  0  0  0 
 20 21  1  0  0  0  0 
 20 22  2  0  0  0  0 
 14 22  1  0  0  0  0 
M  END
> <SMILES>
CCc1oc2ccccc2c1C(=O)c3cc(Br)c(O)c(Br)c3

$$$$

  CDK     01261921162D

 17 18  0  0  1  0  0  0  0  0999 V2000
   -5.9199   -1.2445    0.0000 N   0  0  0  0  0  0  0  0  0  0  0  0
   -4.6274   -2.0058    0.0000 C   0  0  0  0  0  0  0  0  0  0  0  0
   -3.3076   -1.2555    0.0000 N   0  0  0  0  0  0  0  0  0  0  0  0
   -2.0189   -2.0232    0.0000 C   0  0  0  0  0  0  0  0  0  0  0  0
   -0.7108   -1.2890    0.0000 O   0  0  0  0  0  0  0  0  0  0  0  0
   -2.0347   -3.5153    0.0000 N   0  0  0  0  0  0  0  0  0  0  0  0
   -0.7357   -4.2653    0.0000 C   0  0  0  0  0  0  0  0  0  0  0  0
    0.5634   -3.5153    0.0000 C   0  0  1  0  0  0  0  0  0  0  0  0
    1.8624   -4.2653    0.0000 C   0  0  0  0  0  0  0  0  0  0  0  0
    3.1614   -3.5153    0.0000 O   0  0  0  0  0  0  0  0  0  0  0  0
    3.1614   -2.0153    0.0000 P   0  0  0  0  0  0  0  0  0  0  0  0
    4.6386   -2.2758    0.0000 O   0  0  0  0  0  0  0  0  0  0  0  0
    3.6745   -0.6057    0.0000 O   0  0  0  0  0  0  0  0  0  0  0  0
    1.8624   -1.2653    0.0000 C   0  0  0  0  0  0  0  0  0  0  0  0
    0.5634   -2.0153    0.0000 O   0  0  0  0  0  0  0  0  0  0  0  0
   -3.3288   -4.2809    0.0000 C   0  0  0  0  0  0  0  0  0  0  0  0
   -4.6433   -3.4979    0.0000 C   0  0  0  0  0  0  0  0  0  0  0  0
  1  2  1  0  0  0  0 
  2  3  2  0  0  0  0 
  3  4  1  0  0  0  0 
  4  5  2  0  0  0  0 
  4  6  1  0  0  0  0 
  6  7  1  0  0  0  0 
  8  7  1  6  0  0  0 
  8  9  1  0  0  0  0 
  9 10  1  0  0  0  0 
 10 11  1  0  0  0  0 
 11 12  2  0  0  0  0 
 11 13  1  0  0  0  0 
 11 14  1  0  0  0  0 
 14 15  1  0  0  0  0 
  8 15  1  0  0  0  0 
  6 16  1  0  0  0  0 
 16 17  2  0  0  0  0 
  2 17  1  0  0  0  0 
M  END
> <SMILES>
NC1=NC(=O)N(C[C@H]2COP(=O)(O)CO2)C=C1

$$$$

  CDK     01261921162D

 25 27  0  0  1  0  0  0  0  0999 V2000
    3.6086   -1.1008    0.0000 C   0  0  0  0  0  0  0  0  0  0  0  0
    2.3100   -0.3500    0.0000 C   0  0  0  0  0  0  0  0  0  0  0  0
    0.9900   -1.1100    0.0000 C   0  0  0  0  0  0  0  0  0  0  0  0
   -0.3000   -0.3300    0.0000 N   0  0  0  0  0  0  0  0  0  0  0  0
   -0.3000    1.1700    0.0000 C   0  0  2  0  0  0  0  0  0  0  0  0
    0.9900    1.9200    0.0000 S   0  0  0  0  0  0  0  0  0  0  0  0
    2.3100    1.1700    0.0000 C   0  0  0  0  0  0  0  0  0  0  0  0
   -1.8000    1.1700    0.0000 C   0  0  2  0  0  0  0  0  0  0  0  0
   -2.8607    2.2307    0.0000 N   0  0  0  0  0  0  0  0  0  0  0  0
   -4.3095    1.8424    0.0000 C   0  0  0  0  0  0  0  0  0  0  0  0
   -4.6978    0.3935    0.0000 O   0  0  0  0  0  0  0  0  0  0  0  0
   -5.3702    2.9031    0.0000 C   0  0  2  0  0  0  0  0  0  0  0  0
   -6.8191    2.5149    0.0000 N   0  0  0  0  0  0  0  0  0  0  0  0
   -4.9820    4.3520    0.0000 C   0  0  0  0  0  0  0  0  0  0  0  0
   -6.0478    5.4074    0.0000 C   0  0  0  0  0  0  0  0  0  0  0  0
   -5.6872    6.8376    0.0000 C   0  0  0  0  0  0  0  0  0  0  0  0
   -4.2044    7.2691    0.0000 C   0  0  0  0  0  0  0  0  0  0  0  0
   -3.8353    8.7230    0.0000 O   0  0  0  0  0  0  0  0  0  0  0  0
   -3.1385    6.2137    0.0000 C   0  0  0  0  0  0  0  0  0  0  0  0
   -3.5555    4.7267    0.0000 C   0  0  0  0  0  0  0  0  0  0  0  0
   -1.8000   -0.3300    0.0000 C   0  0  0  0  0  0  0  0  0  0  0  0
   -2.8607   -1.3907    0.0000 O   0  0  0  0  0  0  0  0  0  0  0  0
    0.9739   -2.6099    0.0000 C   0  0  0  0  0  0  0  0  0  0  0  0
   -0.3331   -3.3460    0.0000 O   0  0  0  0  0  0  0  0  0  0  0  0
    2.2649   -3.3738    0.0000 O   0  0  0  0  0  0  0  0  0  0  0  0
  1  2  1  0  0  0  0 
  2  3  2  0  0  0  0 
  3  4  1  0  0  0  0 
  5  4  1  1  0  0  0 
  5  6  1  0  0  0  0 
  6  7  1  0  0  0  0 
  2  7  1  0  0  0  0 
  5  8  1  0  0  0  0 
  8  9  1  1  0  0  0 
  9 10  1  0  0  0  0 
 10 11  2  0  0  0  0 
 10 12  1  0  0  0  0 
 12 13  1  6  0  0  0 
 12 14  1  0  0  0  0 
 14 15  2  0  0  0  0 
 15 16  1  0  0  0  0 
 16 17  2  0  0  0  0 
 17 18  1  0  0  0  0 
 17 19  1  0  0  0  0 
 19 20  2  0  0  0  0 
 14 20  1  0  0  0  0 
  8 21  1  0  0  0  0 
  4 21  1  0  0  0  0 
 21 22  2  0  0  0  0 
  3 23  1  0  0  0  0 
 23 24  2  0  0  0  0 
 23 25  1  0  0  0  0 
M  END
> <SMILES>
CC1=C(N2[C@H](SC1)[C@H](NC(=O)[C@H](N)c3ccc(O)cc3)C2=O)C(=O)O

$$$$

  CDK     01261921162D

 21 22  0  0  0  0  0  0  0  0999 V2000
   -0.9866    2.6453    0.0000 N   0  0  0  0  0  0  0  0  0  0  0  0
   -0.5245    1.2183    0.0000 S   0  0  0  0  0  0  0  0  0  0  0  0
   -2.0101    1.0110    0.0000 O   0  0  0  0  0  0  0  0  0  0  0  0
   -0.5784   -0.2808    0.0000 O   0  0  0  0  0  0  0  0  0  0  0  0
    0.9424    0.9049    0.0000 C   0  0  0  0  0  0  0  0  0  0  0  0
    1.9480    2.0190    0.0000 C   0  0  0  0  0  0  0  0  0  0  0  0
    3.4158    1.7062    0.0000 C   0  0  0  0  0  0  0  0  0  0  0  0
    4.4203    2.8202    0.0000 C   0  0  0  0  0  0  0  0  0  0  0  0
    5.8873    2.5073    0.0000 O   0  0  0  0  0  0  0  0  0  0  0  0
    3.9578    4.2471    0.0000 O   0  0  0  0  0  0  0  0  0  0  0  0
    3.8781    0.2792    0.0000 C   0  0  0  0  0  0  0  0  0  0  0  0
    5.3450   -0.0341    0.0000 N   0  0  0  0  0  0  0  0  0  0  0  0
    5.8071   -1.4612    0.0000 C   0  0  0  0  0  0  0  0  0  0  0  0
    7.2740   -1.7746    0.0000 C   0  0  0  0  0  0  0  0  0  0  0  0
    7.8905   -3.1467    0.0000 O   0  0  0  0  0  0  0  0  0  0  0  0
    9.3784   -2.9896    0.0000 C   0  0  0  0  0  0  0  0  0  0  0  0
    9.6901   -1.5298    0.0000 C   0  0  0  0  0  0  0  0  0  0  0  0
    8.3910   -0.7798    0.0000 C   0  0  0  0  0  0  0  0  0  0  0  0
    2.8726   -0.8349    0.0000 C   0  0  0  0  0  0  0  0  0  0  0  0
    1.4047   -0.5221    0.0000 C   0  0  0  0  0  0  0  0  0  0  0  0
    0.4002   -1.6361    0.0000 Cl  0  0  0  0  0  0  0  0  0  0  0  0
  1  2  1  0  0  0  0 
  2  3  2  0  0  0  0 
  2  4  2  0  0  0  0 
  2  5  1  0  0  0  0 
  5  6  2  0  0  0  0 
  6  7  1  0  0  0  0 
  7  8  1  0  0  0  0 
  8  9  2  0  0  0  0 
  8 10  1  0  0  0  0 
  7 11  2  0  0  0  0 
 11 12  1  0  0  0  0 
 12 13  1  0  0  0  0 
 13 14  1  0  0  0  0 
 14 15  1  0  0  0  0 
 15 16  1  0  0  0  0 
 16 17  2  0  0  0  0 
 17 18  1  0  0  0  0 
 14 18  2  0  0  0  0 
 11 19  1  0  0  0  0 
 19 20  2  0  0  0  0 
  5 20  1  0  0  0  0 
 20 21  1  0  0  0  0 
M  END
> <SMILES>
NS(=O)(=O)c1cc(C(=O)O)c(NCc2occc2)cc1Cl

$$$$

  CDK     01261921162D

 17 18  0  0  1  0  0  0  0  0999 V2000
   -5.1981   -0.7504    0.0000 C   0  0  0  0  0  0  0  0  0  0  0  0
   -3.8989   -1.5002    0.0000 O   0  0  0  0  0  0  0  0  0  0  0  0
   -2.6000   -0.7500    0.0000 C   0  0  0  0  0  0  0  0  0  0  0  0
   -2.6000    0.7500    0.0000 C   0  0  0  0  0  0  0  0  0  0  0  0
   -1.3000    1.5000    0.0000 C   0  0  0  0  0  0  0  0  0  0  0  0
    0.0000    0.7500    0.0000 C   0  0  0  0  0  0  0  0  0  0  0  0
    1.3000    1.5000    0.0000 C   0  0  0  0  0  0  0  0  0  0  0  0
    2.6000    0.7500    0.0000 C   0  0  0  0  0  0  0  0  0  0  0  0
    2.6000   -0.7500    0.0000 C   0  0  0  0  0  0  0  0  0  0  0  0
    1.3000   -1.5000    0.0000 C   0  0  0  0  0  0  0  0  0  0  0  0
    0.0000   -0.7500    0.0000 C   0  0  0  0  0  0  0  0  0  0  0  0
   -1.3000   -1.5000    0.0000 C   0  0  0  0  0  0  0  0  0  0  0  0
    3.8989    1.5002    0.0000 C   0  0  2  0  0  0  0  0  0  0  0  0
    3.8987    3.0002    0.0000 C   0  0  0  0  0  0  0  0  0  0  0  0
    5.1981    0.7504    0.0000 C   0  0  0  0  0  0  0  0  0  0  0  0
    5.1983   -0.7496    0.0000 O   0  0  0  0  0  0  0  0  0  0  0  0
    6.4970    1.5006    0.0000 O   0  0  0  0  0  0  0  0  0  0  0  0
  1  2  1  0  0  0  0 
  2  3  1  0  0  0  0 
  3  4  2  0  0  0  0 
  4  5  1  0  0  0  0 
  5  6  2  0  0  0  0 
  6  7  1  0  0  0  0 
  7  8  2  0  0  0  0 
  8  9  1  0  0  0  0 
  9 10  2  0  0  0  0 
 10 11  1  0  0  0  0 
  6 11  1  0  0  0  0 
 11 12  2  0  0  0  0 
  3 12  1  0  0  0  0 
  8 13  1  0  0  0  0 
 13 14  1  6  0  0  0 
 13 15  1  0  0  0  0 
 15 16  2  0  0  0  0 
 15 17  1  0  0  0  0 
M  END
> <SMILES>
COc1ccc2cc(ccc2c1)[C@H](C)C(=O)O

$$$$

  CDK     01261921162D

 28 31  0  0  1  0  0  0  0  0999 V2000
    2.2649   -3.3738    0.0000 O   0  5  0  0  0  0  0  0  0  0  0  0
    0.9739   -2.6099    0.0000 C   0  0  0  0  0  0  0  0  0  0  0  0
   -0.3331   -3.3460    0.0000 O   0  0  0  0  0  0  0  0  0  0  0  0
    0.9900   -1.1100    0.0000 C   0  0  0  0  0  0  0  0  0  0  0  0
    2.3100   -0.3500    0.0000 C   0  0  0  0  0  0  0  0  0  0  0  0
    3.6086   -1.1008    0.0000 C   0  0  0  0  0  0  0  0  0  0  0  0
    4.9081   -0.3516    0.0000 N   0  3  0  0  0  0  0  0  0  0  0  0
    4.9085    1.1493    0.0000 C   0  0  0  0  0  0  0  0  0  0  0  0
    6.2080    1.8985    0.0000 C   0  0  0  0  0  0  0  0  0  0  0  0
    7.5070    1.1469    0.0000 C   0  0  0  0  0  0  0  0  0  0  0  0
    7.5066   -0.3539    0.0000 C   0  0  0  0  0  0  0  0  0  0  0  0
    6.2071   -1.1032    0.0000 C   0  0  0  0  0  0  0  0  0  0  0  0
    2.3100    1.1700    0.0000 C   0  0  0  0  0  0  0  0  0  0  0  0
    0.9900    1.9200    0.0000 S   0  0  0  0  0  0  0  0  0  0  0  0
   -0.3000    1.1700    0.0000 C   0  0  2  0  0  0  0  0  0  0  0  0
   -1.8000    1.1700    0.0000 C   0  0  2  0  0  0  0  0  0  0  0  0
   -2.8607    2.2307    0.0000 N   0  0  0  0  0  0  0  0  0  0  0  0
   -4.3095    1.8424    0.0000 C   0  0  0  0  0  0  0  0  0  0  0  0
   -4.6978    0.3935    0.0000 O   0  0  0  0  0  0  0  0  0  0  0  0
   -5.3702    2.9031    0.0000 C   0  0  0  0  0  0  0  0  0  0  0  0
   -6.8191    2.5149    0.0000 C   0  0  0  0  0  0  0  0  0  0  0  0
   -7.9849    3.4622    0.0000 C   0  0  0  0  0  0  0  0  0  0  0  0
   -9.2419    2.6437    0.0000 C   0  0  0  0  0  0  0  0  0  0  0  0
   -8.8471    1.1943    0.0000 C   0  0  0  0  0  0  0  0  0  0  0  0
   -7.3529    1.1172    0.0000 S   0  0  0  0  0  0  0  0  0  0  0  0
   -1.8000   -0.3300    0.0000 C   0  0  0  0  0  0  0  0  0  0  0  0
   -2.8607   -1.3907    0.0000 O   0  0  0  0  0  0  0  0  0  0  0  0
   -0.3000   -0.3300    0.0000 N   0  0  0  0  0  0  0  0  0  0  0  0
  1  2  1  0  0  0  0 
  2  3  2  0  0  0  0 
  2  4  1  0  0  0  0 
  4  5  2  0  0  0  0 
  5  6  1  0  0  0  0 
  6  7  1  0  0  0  0 
  7  8  2  0  0  0  0 
  8  9  1  0  0  0  0 
  9 10  2  0  0  0  0 
 10 11  1  0  0  0  0 
 11 12  2  0  0  0  0 
  7 12  1  0  0  0  0 
  5 13  1  0  0  0  0 
 13 14  1  0  0  0  0 
 14 15  1  0  0  0  0 
 15 16  1  0  0  0  0 
 16 17  1  1  0  0  0 
 17 18  1  0  0  0  0 
 18 19  2  0  0  0  0 
 18 20  1  0  0  0  0 
 20 21  1  0  0  0  0 
 21 22  2  0  0  0  0 
 22 23  1  0  0  0  0 
 23 24  2  0  0  0  0 
 24 25  1  0  0  0  0 
 21 25  1  0  0  0  0 
 16 26  1  0  0  0  0 
 26 27  2  0  0  0  0 
 26 28  1  0  0  0  0 
  4 28  1  0  0  0  0 
 15 28  1  1  0  0  0 
M  CHG  1   1  -1
M  CHG  1   7   1
M  END
> <SMILES>
[O-]C(=O)C1=C(C[n+]2ccccc2)CS[C@@H]3[C@H](NC(=O)Cc4cccs4)C(=O)N13

$$$$

  CDK     01261921162D

 13 13  0  0  0  0  0  0  0  0999 V2000
   -5.1970   -1.5006    0.0000 C   0  0  0  0  0  0  0  0  0  0  0  0
   -3.8981   -0.7504    0.0000 C   0  0  0  0  0  0  0  0  0  0  0  0
   -2.5989   -1.5002    0.0000 O   0  0  0  0  0  0  0  0  0  0  0  0
   -1.3000   -0.7500    0.0000 C   0  0  0  0  0  0  0  0  0  0  0  0
   -0.0000   -1.5000    0.0000 C   0  0  0  0  0  0  0  0  0  0  0  0
    1.3000   -0.7500    0.0000 C   0  0  0  0  0  0  0  0  0  0  0  0
    1.3000    0.7500    0.0000 C   0  0  0  0  0  0  0  0  0  0  0  0
    2.5989    1.5002    0.0000 N   0  0  0  0  0  0  0  0  0  0  0  0
    3.8981    0.7504    0.0000 C   0  0  0  0  0  0  0  0  0  0  0  0
    3.8983   -0.7496    0.0000 O   0  0  0  0  0  0  0  0  0  0  0  0
    5.1970    1.5006    0.0000 C   0  0  0  0  0  0  0  0  0  0  0  0
    0.0000    1.5000    0.0000 C   0  0  0  0  0  0  0  0  0  0  0  0
   -1.3000    0.7500    0.0000 C   0  0  0  0  0  0  0  0  0  0  0  0
  1  2  1  0  0  0  0 
  2  3  1  0  0  0  0 
  3  4  1  0  0  0  0 
  4  5  2  0  0  0  0 
  5  6  1  0  0  0  0 
  6  7  2  0  0  0  0 
  7  8  1  0  0  0  0 
  8  9  1  0  0  0  0 
  9 10  2  0  0  0  0 
  9 11  1  0  0  0  0 
  7 12  1  0  0  0  0 
 12 13  2  0  0  0  0 
  4 13  1  0  0  0  0 
M  END
> <SMILES>
CCOc1ccc(NC(=O)C)cc1

$$$$

  CDK     01261921162D

 30 32  0  0  1  0  0  0  0  0999 V2000
   -9.3286    3.1873    0.0000 C   0  0  0  0  0  0  0  0  0  0  0  0
   -7.8798    3.5755    0.0000 O   0  0  0  0  0  0  0  0  0  0  0  0
   -6.8191    2.5149    0.0000 N   0  0  0  0  0  0  0  0  0  0  0  0
   -5.3702    2.9031    0.0000 C   0  0  0  0  0  0  0  0  0  0  0  0
   -4.3095    1.8424    0.0000 C   0  0  0  0  0  0  0  0  0  0  0  0
   -4.6978    0.3935    0.0000 O   0  0  0  0  0  0  0  0  0  0  0  0
   -2.8607    2.2307    0.0000 N   0  0  0  0  0  0  0  0  0  0  0  0
   -1.8000    1.1700    0.0000 C   0  0  1  0  0  0  0  0  0  0  0  0
   -0.3000    1.1700    0.0000 C   0  0  1  0  0  0  0  0  0  0  0  0
    0.9900    1.9200    0.0000 S   0  0  0  0  0  0  0  0  0  0  0  0
    2.3100    1.1700    0.0000 C   0  0  0  0  0  0  0  0  0  0  0  0
    2.3100   -0.3500    0.0000 C   0  0  0  0  0  0  0  0  0  0  0  0
    0.9900   -1.1100    0.0000 C   0  0  0  0  0  0  0  0  0  0  0  0
   -0.3000   -0.3300    0.0000 N   0  0  0  0  0  0  0  0  0  0  0  0
   -1.8000   -0.3300    0.0000 C   0  0  0  0  0  0  0  0  0  0  0  0
   -2.8607   -1.3907    0.0000 O   0  0  0  0  0  0  0  0  0  0  0  0
    0.9739   -2.6099    0.0000 C   0  0  0  0  0  0  0  0  0  0  0  0
   -0.3331   -3.3460    0.0000 O   0  0  0  0  0  0  0  0  0  0  0  0
    2.2649   -3.3738    0.0000 O   0  0  0  0  0  0  0  0  0  0  0  0
    3.6086   -1.1008    0.0000 C   0  0  0  0  0  0  0  0  0  0  0  0
    4.9081   -0.3516    0.0000 O   0  0  0  0  0  0  0  0  0  0  0  0
    6.2067   -1.1023    0.0000 C   0  0  0  0  0  0  0  0  0  0  0  0
    6.2058   -2.6023    0.0000 O   0  0  0  0  0  0  0  0  0  0  0  0
    7.5062   -0.3531    0.0000 C   0  0  0  0  0  0  0  0  0  0  0  0
   -4.9820    4.3520    0.0000 C   0  0  0  0  0  0  0  0  0  0  0  0
   -3.5887    4.8875    0.0000 C   0  0  0  0  0  0  0  0  0  0  0  0
   -3.6579    6.3880    0.0000 S   0  0  0  0  0  0  0  0  0  0  0  0
   -5.1108    6.7689    0.0000 C   0  0  0  0  0  0  0  0  0  0  0  0
   -5.6513    8.1681    0.0000 N   0  0  0  0  0  0  0  0  0  0  0  0
   -5.9254    5.5181    0.0000 N   0  0  0  0  0  0  0  0  0  0  0  0
  1  2  1  0  0  0  0 
  2  3  1  4  0  0  0 
  3  4  2  0  0  0  0 
  4  5  1  0  0  0  0 
  5  6  2  0  0  0  0 
  5  7  1  0  0  0  0 
  8  7  1  1  0  0  0 
  8  9  1  0  0  0  0 
  9 10  1  0  0  0  0 
 10 11  1  0  0  0  0 
 11 12  1  0  0  0  0 
 12 13  2  0  0  0  0 
 13 14  1  0  0  0  0 
  9 14  1  1  0  0  0 
 14 15  1  0  0  0  0 
  8 15  1  0  0  0  0 
 15 16  2  0  0  0  0 
 13 17  1  0  0  0  0 
 17 18  2  0  0  0  0 
 17 19  1  0  0  0  0 
 12 20  1  0  0  0  0 
 20 21  1  0  0  0  0 
 21 22  1  0  0  0  0 
 22 23  2  0  0  0  0 
 22 24  1  0  0  0  0 
  4 25  1  0  0  0  0 
 25 26  2  0  0  0  0 
 26 27  1  0  0  0  0 
 27 28  1  0  0  0  0 
 28 29  1  0  0  0  0 
 28 30  2  0  0  0  0 
 25 30  1  0  0  0  0 
M  END
> <SMILES>
CON=C(/C(=O)N[C@H]1[C@H]2SCC(=C(N2C1=O)C(=O)O)COC(=O)C)c3csc(N)n3

$$$$

  CDK     01261921162D

 13 13  0  0  0  0  0  0  0  0999 V2000
   -3.2134    2.6078    0.0000 O   0  0  0  0  0  0  0  0  0  0  0  0
   -1.9145    3.3580    0.0000 C   0  0  0  0  0  0  0  0  0  0  0  0
   -1.9147    4.8580    0.0000 O   0  0  0  0  0  0  0  0  0  0  0  0
   -0.6153    2.6082    0.0000 C   0  0  0  0  0  0  0  0  0  0  0  0
    0.6836    3.3584    0.0000 O   0  0  0  0  0  0  0  0  0  0  0  0
    1.9827    2.6086    0.0000 C   0  0  0  0  0  0  0  0  0  0  0  0
    1.9832    1.1078    0.0000 C   0  0  0  0  0  0  0  0  0  0  0  0
    3.2827    0.3569    0.0000 C   0  0  0  0  0  0  0  0  0  0  0  0
    4.5818    1.1069    0.0000 C   0  0  0  0  0  0  0  0  0  0  0  0
    5.8809    0.3571    0.0000 Cl  0  0  0  0  0  0  0  0  0  0  0  0
    4.5813    2.6078    0.0000 C   0  0  0  0  0  0  0  0  0  0  0  0
    3.2818    3.3586    0.0000 C   0  0  0  0  0  0  0  0  0  0  0  0
    3.2820    4.8586    0.0000 Cl  0  0  0  0  0  0  0  0  0  0  0  0
  1  2  1  0  0  0  0 
  2  3  2  0  0  0  0 
  2  4  1  0  0  0  0 
  4  5  1  0  0  0  0 
  5  6  1  0  0  0  0 
  6  7  2  0  0  0  0 
  7  8  1  0  0  0  0 
  8  9  2  0  0  0  0 
  9 10  1  0  0  0  0 
  9 11  1  0  0  0  0 
 11 12  2  0  0  0  0 
  6 12  1  0  0  0  0 
 12 13  1  0  0  0  0 
M  END
> <SMILES>
OC(=O)COc1ccc(Cl)cc1Cl

$$$$

  CDK     01261921162D

 36 39  0  0  1  0  0  0  0  0999 V2000
   -9.3286    3.1873    0.0000 C   0  0  0  0  0  0  0  0  0  0  0  0
   -7.8798    3.5755    0.0000 O   0  0  0  0  0  0  0  0  0  0  0  0
   -6.8191    2.5149    0.0000 N   0  0  0  0  0  0  0  0  0  0  0  0
   -5.3702    2.9031    0.0000 C   0  0  0  0  0  0  0  0  0  0  0  0
   -4.3095    1.8424    0.0000 C   0  0  0  0  0  0  0  0  0  0  0  0
   -4.6978    0.3935    0.0000 O   0  0  0  0  0  0  0  0  0  0  0  0
   -2.8607    2.2307    0.0000 N   0  0  0  0  0  0  0  0  0  0  0  0
   -1.8000    1.1700    0.0000 C   0  0  1  0  0  0  0  0  0  0  0  0
   -0.3000    1.1700    0.0000 C   0  0  1  0  0  0  0  0  0  0  0  0
    0.9900    1.9200    0.0000 S   0  0  0  0  0  0  0  0  0  0  0  0
    2.3100    1.1700    0.0000 C   0  0  0  0  0  0  0  0  0  0  0  0
    2.3100   -0.3500    0.0000 C   0  0  0  0  0  0  0  0  0  0  0  0
    0.9900   -1.1100    0.0000 C   0  0  0  0  0  0  0  0  0  0  0  0
   -0.3000   -0.3300    0.0000 N   0  0  0  0  0  0  0  0  0  0  0  0
   -1.8000   -0.3300    0.0000 C   0  0  0  0  0  0  0  0  0  0  0  0
   -2.8607   -1.3907    0.0000 O   0  0  0  0  0  0  0  0  0  0  0  0
    0.9739   -2.6099    0.0000 C   0  0  0  0  0  0  0  0  0  0  0  0
   -0.3331   -3.3460    0.0000 O   0  0  0  0  0  0  0  0  0  0  0  0
    2.2649   -3.3738    0.0000 O   0  0  0  0  0  0  0  0  0  0  0  0
    3.6086   -1.1008    0.0000 C   0  0  0  0  0  0  0  0  0  0  0  0
    4.9081   -0.3516    0.0000 S   0  0  0  0  0  0  0  0  0  0  0  0
    6.2067   -1.1023    0.0000 C   0  0  0  0  0  0  0  0  0  0  0  0
    7.5070   -0.3529    0.0000 N   0  0  0  0  0  0  0  0  0  0  0  0
    8.8067   -1.1035    0.0000 C   0  0  0  0  0  0  0  0  0  0  0  0
   10.1059   -0.3538    0.0000 O   0  0  0  0  0  0  0  0  0  0  0  0
    8.8060   -2.6035    0.0000 C   0  0  0  0  0  0  0  0  0  0  0  0
    7.5057   -3.3529    0.0000 N   0  0  0  0  0  0  0  0  0  0  0  0
    6.2060   -2.6023    0.0000 N   0  0  0  0  0  0  0  0  0  0  0  0
    4.9068   -3.3520    0.0000 C   0  0  0  0  0  0  0  0  0  0  0  0
   10.1046   -3.3542    0.0000 O   0  0  0  0  0  0  0  0  0  0  0  0
   -4.9820    4.3520    0.0000 C   0  0  0  0  0  0  0  0  0  0  0  0
   -3.5887    4.8875    0.0000 C   0  0  0  0  0  0  0  0  0  0  0  0
   -3.6579    6.3880    0.0000 S   0  0  0  0  0  0  0  0  0  0  0  0
   -5.1108    6.7689    0.0000 C   0  0  0  0  0  0  0  0  0  0  0  0
   -5.6513    8.1681    0.0000 N   0  0  0  0  0  0  0  0  0  0  0  0
   -5.9254    5.5181    0.0000 N   0  0  0  0  0  0  0  0  0  0  0  0
  1  2  1  0  0  0  0 
  2  3  1  4  0  0  0 
  3  4  2  0  0  0  0 
  4  5  1  0  0  0  0 
  5  6  2  0  0  0  0 
  5  7  1  0  0  0  0 
  8  7  1  1  0  0  0 
  8  9  1  0  0  0  0 
  9 10  1  0  0  0  0 
 10 11  1  0  0  0  0 
 11 12  1  0  0  0  0 
 12 13  2  0  0  0  0 
 13 14  1  0  0  0  0 
  9 14  1  1  0  0  0 
 14 15  1  0  0  0  0 
  8 15  1  0  0  0  0 
 15 16  2  0  0  0  0 
 13 17  1  0  0  0  0 
 17 18  2  0  0  0  0 
 17 19  1  0  0  0  0 
 12 20  1  0  0  0  0 
 20 21  1  0  0  0  0 
 21 22  1  0  0  0  0 
 22 23  2  0  0  0  0 
 23 24  1  0  0  0  0 
 24 25  2  0  0  0  0 
 24 26  1  0  0  0  0 
 26 27  2  0  0  0  0 
 27 28  1  0  0  0  0 
 22 28  1  0  0  0  0 
 28 29  1  0  0  0  0 
 26 30  1  0  0  0  0 
  4 31  1  0  0  0  0 
 31 32  2  0  0  0  0 
 32 33  1  0  0  0  0 
 33 34  1  0  0  0  0 
 34 35  1  0  0  0  0 
 34 36  2  0  0  0  0 
 31 36  1  0  0  0  0 
M  END
> <SMILES>
CON=C(/C(=O)N[C@H]1[C@H]2SCC(=C(N2C1=O)C(=O)O)CSC3=NC(=O)C(=NN3C)O)c4csc(N)n4

$$$$

  CDK     01261921162D

 12 13  0  0  0  0  0  0  0  0999 V2000
   -3.6089    1.5002    0.0000 C   0  0  0  0  0  0  0  0  0  0  0  0
   -2.3100    0.7500    0.0000 N   0  0  0  0  0  0  0  0  0  0  0  0
   -2.3100   -0.7500    0.0000 C   0  0  0  0  0  0  0  0  0  0  0  0
   -3.6089   -1.5002    0.0000 O   0  0  0  0  0  0  0  0  0  0  0  0
   -1.0100   -1.5000    0.0000 N   0  0  0  0  0  0  0  0  0  0  0  0
    0.2900   -0.7500    0.0000 C   0  0  0  0  0  0  0  0  0  0  0  0
    1.7200   -1.2100    0.0000 N   0  0  0  0  0  0  0  0  0  0  0  0
    2.6000    0.0000    0.0000 C   0  0  0  0  0  0  0  0  0  0  0  0
    1.7200    1.2100    0.0000 N   0  0  0  0  0  0  0  0  0  0  0  0
    0.2900    0.7500    0.0000 C   0  0  0  0  0  0  0  0  0  0  0  0
   -1.0100    1.5000    0.0000 C   0  0  0  0  0  0  0  0  0  0  0  0
   -1.0100    3.0000    0.0000 O   0  0  0  0  0  0  0  0  0  0  0  0
  1  2  1  0  0  0  0 
  2  3  1  0  0  0  0 
  3  4  2  0  0  0  0 
  3  5  1  0  0  0  0 
  5  6  1  0  0  0  0 
  6  7  1  0  0  0  0 
  7  8  1  0  0  0  0 
  8  9  2  0  0  0  0 
  9 10  1  0  0  0  0 
  6 10  2  0  0  0  0 
 10 11  1  0  0  0  0 
  2 11  1  0  0  0  0 
 11 12  2  0  0  0  0 
M  END
> <SMILES>
CN1C(=O)Nc2[nH]cnc2C1=O

$$$$

  CDK     01261921162D

 25 27  0  0  0  0  0  0  0  0999 V2000
   -4.9081    0.7504    0.0000 C   0  0  0  0  0  0  0  0  0  0  0  0
   -3.6089    1.5002    0.0000 O   0  0  0  0  0  0  0  0  0  0  0  0
   -2.3100    0.7500    0.0000 C   0  0  0  0  0  0  0  0  0  0  0  0
   -2.3100   -0.7500    0.0000 C   0  0  0  0  0  0  0  0  0  0  0  0
   -1.0100   -1.5000    0.0000 C   0  0  0  0  0  0  0  0  0  0  0  0
    0.2900   -0.7500    0.0000 C   0  0  0  0  0  0  0  0  0  0  0  0
    0.2900    0.7500    0.0000 C   0  0  0  0  0  0  0  0  0  0  0  0
   -1.0100    1.5000    0.0000 C   0  0  0  0  0  0  0  0  0  0  0  0
    1.7200    1.2100    0.0000 C   0  0  0  0  0  0  0  0  0  0  0  0
    2.1853    2.6360    0.0000 C   0  0  0  0  0  0  0  0  0  0  0  0
    3.6529    2.9461    0.0000 C   0  0  0  0  0  0  0  0  0  0  0  0
    4.6552    1.8301    0.0000 O   0  0  0  0  0  0  0  0  0  0  0  0
    4.1182    4.3721    0.0000 O   0  0  0  0  0  0  0  0  0  0  0  0
    2.6000   -0.0000    0.0000 C   0  0  0  0  0  0  0  0  0  0  0  0
    4.1000   -0.0000    0.0000 C   0  0  0  0  0  0  0  0  0  0  0  0
    1.7200   -1.2100    0.0000 N   0  0  0  0  0  0  0  0  0  0  0  0
    2.1853   -2.6360    0.0000 C   0  0  0  0  0  0  0  0  0  0  0  0
    1.1830   -3.7520    0.0000 O   0  0  0  0  0  0  0  0  0  0  0  0
    3.6529   -2.9461    0.0000 C   0  0  0  0  0  0  0  0  0  0  0  0
    4.1150   -4.3558    0.0000 C   0  0  0  0  0  0  0  0  0  0  0  0
    5.5810   -4.6732    0.0000 C   0  0  0  0  0  0  0  0  0  0  0  0
    6.5947   -3.5831    0.0000 C   0  0  0  0  0  0  0  0  0  0  0  0
    8.0591   -3.9079    0.0000 Cl  0  0  0  0  0  0  0  0  0  0  0  0
    6.1291   -2.1419    0.0000 C   0  0  0  0  0  0  0  0  0  0  0  0
    4.6631   -1.8245    0.0000 C   0  0  0  0  0  0  0  0  0  0  0  0
  1  2  1  0  0  0  0 
  2  3  1  0  0  0  0 
  3  4  2  0  0  0  0 
  4  5  1  0  0  0  0 
  5  6  2  0  0  0  0 
  6  7  1  0  0  0  0 
  7  8  2  0  0  0  0 
  3  8  1  0  0  0  0 
  7  9  1  0  0  0  0 
  9 10  1  0  0  0  0 
 10 11  1  0  0  0  0 
 11 12  2  0  0  0  0 
 11 13  1  0  0  0  0 
  9 14  2  0  0  0  0 
 14 15  1  0  0  0  0 
 14 16  1  0  0  0  0 
  6 16  1  0  0  0  0 
 16 17  1  0  0  0  0 
 17 18  2  0  0  0  0 
 17 19  1  0  0  0  0 
 19 20  2  0  0  0  0 
 20 21  1  0  0  0  0 
 21 22  2  0  0  0  0 
 22 23  1  0  0  0  0 
 22 24  1  0  0  0  0 
 24 25  2  0  0  0  0 
 19 25  1  0  0  0  0 
M  END
> <SMILES>
COc1ccc2c(c1)c(CC(=O)O)c(C)n2C(=O)c3ccc(Cl)cc3

$$$$

  CDK     01261921162D

 14 14  0  0  0  0  0  0  0  0999 V2000
   -3.8922    3.7647    0.0000 O   0  0  0  0  0  0  0  0  0  0  0  0
   -2.5969    3.0083    0.0000 C   0  0  0  0  0  0  0  0  0  0  0  0
   -2.6043    1.5084    0.0000 O   0  0  0  0  0  0  0  0  0  0  0  0
   -1.2942    3.7519    0.0000 C   0  0  0  0  0  0  0  0  0  0  0  0
    0.0011    2.9956    0.0000 N   0  0  0  0  0  0  0  0  0  0  0  0
    1.3039    3.7391    0.0000 C   0  0  0  0  0  0  0  0  0  0  0  0
    1.3112    5.2391    0.0000 O   0  0  0  0  0  0  0  0  0  0  0  0
    2.5992    2.9828    0.0000 C   0  0  0  0  0  0  0  0  0  0  0  0
    3.8982    3.7328    0.0000 C   0  0  0  0  0  0  0  0  0  0  0  0
    5.1827    3.0079    0.0000 C   0  0  0  0  0  0  0  0  0  0  0  0
    5.2082    1.4638    0.0000 C   0  0  0  0  0  0  0  0  0  0  0  0
    6.5134    0.7245    0.0000 O   0  0  0  0  0  0  0  0  0  0  0  0
    3.9092    0.7138    0.0000 C   0  0  0  0  0  0  0  0  0  0  0  0
    2.5847    1.5079    0.0000 C   0  0  0  0  0  0  0  0  0  0  0  0
  1  2  1  0  0  0  0 
  2  3  2  0  0  0  0 
  2  4  1  0  0  0  0 
  4  5  1  0  0  0  0 
  5  6  1  0  0  0  0 
  6  7  2  0  0  0  0 
  6  8  1  0  0  0  0 
  8  9  2  0  0  0  0 
  9 10  1  0  0  0  0 
 10 11  2  0  0  0  0 
 11 12  1  0  0  0  0 
 11 13  1  0  0  0  0 
 13 14  2  0  0  0  0 
  8 14  1  0  0  0  0 
M  END
> <SMILES>
OC(=O)CNC(=O)c1ccc(O)cc1

$$$$

  CDK     01261921162D

 25 26  0  0  0  0  0  0  0  0999 V2000
   -8.1199   -0.9380    0.0000 C   0  0  0  0  0  0  0  0  0  0  0  0
   -6.8208   -0.1882    0.0000 C   0  0  0  0  0  0  0  0  0  0  0  0
   -5.5218   -0.9384    0.0000 C   0  0  0  0  0  0  0  0  0  0  0  0
   -4.2227   -0.1886    0.0000 C   0  0  0  0  0  0  0  0  0  0  0  0
   -2.9238   -0.9388    0.0000 N   0  0  0  0  0  0  0  0  0  0  0  0
   -1.6246   -0.1890    0.0000 C   0  0  0  0  0  0  0  0  0  0  0  0
   -1.6241    1.3118    0.0000 C   0  0  0  0  0  0  0  0  0  0  0  0
   -0.3246    2.0627    0.0000 C   0  0  0  0  0  0  0  0  0  0  0  0
    0.9744    1.3127    0.0000 C   0  0  0  0  0  0  0  0  0  0  0  0
    0.9739   -0.1882    0.0000 C   0  0  0  0  0  0  0  0  0  0  0  0
   -0.3256   -0.9390    0.0000 C   0  0  0  0  0  0  0  0  0  0  0  0
   -0.3253   -2.4390    0.0000 O   0  0  0  0  0  0  0  0  0  0  0  0
    0.9738   -3.1888    0.0000 C   0  0  0  0  0  0  0  0  0  0  0  0
    0.9743   -4.6896    0.0000 C   0  0  0  0  0  0  0  0  0  0  0  0
    2.2738   -5.4405    0.0000 C   0  0  0  0  0  0  0  0  0  0  0  0
    3.5729   -4.6905    0.0000 C   0  0  0  0  0  0  0  0  0  0  0  0
    3.5724   -3.1896    0.0000 C   0  0  0  0  0  0  0  0  0  0  0  0
    2.2729   -2.4388    0.0000 C   0  0  0  0  0  0  0  0  0  0  0  0
    2.2730   -0.9382    0.0000 S   0  0  0  0  0  0  0  0  0  0  0  0
    1.3088   -2.0872    0.0000 O   0  0  0  0  0  0  0  0  0  0  0  0
    3.2372   -2.0872    0.0000 O   0  0  0  0  0  0  0  0  0  0  0  0
    3.5720   -0.1882    0.0000 N   0  0  0  0  0  0  0  0  0  0  0  0
   -0.3248    3.5627    0.0000 C   0  0  0  0  0  0  0  0  0  0  0  0
    0.9741    4.3129    0.0000 O   0  0  0  0  0  0  0  0  0  0  0  0
   -1.6240    4.3124    0.0000 O   0  0  0  0  0  0  0  0  0  0  0  0
  1  2  1  0  0  0  0 
  2  3  1  0  0  0  0 
  3  4  1  0  0  0  0 
  4  5  1  0  0  0  0 
  5  6  1  0  0  0  0 
  6  7  2  0  0  0  0 
  7  8  1  0  0  0  0 
  8  9  2  0  0  0  0 
  9 10  1  0  0  0  0 
 10 11  2  0  0  0  0 
  6 11  1  0  0  0  0 
 11 12  1  0  0  0  0 
 12 13  1  0  0  0  0 
 13 14  2  0  0  0  0 
 14 15  1  0  0  0  0 
 15 16  2  0  0  0  0 
 16 17  1  0  0  0  0 
 17 18  2  0  0  0  0 
 13 18  1  0  0  0  0 
 10 19  1  0  0  0  0 
 19 20  2  0  0  0  0 
 19 21  2  0  0  0  0 
 19 22  1  0  0  0  0 
  8 23  1  0  0  0  0 
 23 24  2  0  0  0  0 
 23 25  1  0  0  0  0 
M  END
> <SMILES>
CCCCNc1cc(cc(c1Oc2ccccc2)S(=O)(=O)N)C(=O)O

$$$$

  CDK     01261921162D

 23 25  0  0  0  0  0  0  0  0999 V2000
    3.8989   -1.5002    0.0000 C   0  0  0  0  0  0  0  0  0  0  0  0
    2.6000   -0.7500    0.0000 N   0  0  0  0  0  0  0  0  0  0  0  0
    2.6000    0.7500    0.0000 C   0  0  0  0  0  0  0  0  0  0  0  0
    1.3000    1.5000    0.0000 C   0  0  0  0  0  0  0  0  0  0  0  0
    1.3000    3.0000    0.0000 O   0  0  0  0  0  0  0  0  0  0  0  0
    0.0000    0.7500    0.0000 C   0  0  0  0  0  0  0  0  0  0  0  0
   -1.3000    1.5000    0.0000 C   0  0  0  0  0  0  0  0  0  0  0  0
   -2.6000    0.7500    0.0000 C   0  0  0  0  0  0  0  0  0  0  0  0
   -2.6000   -0.7500    0.0000 C   0  0  0  0  0  0  0  0  0  0  0  0
   -1.3000   -1.5000    0.0000 C   0  0  0  0  0  0  0  0  0  0  0  0
    0.0000   -0.7500    0.0000 C   0  0  0  0  0  0  0  0  0  0  0  0
    1.3000   -1.5000    0.0000 S   0  0  0  0  0  0  0  0  0  0  0  0
    0.3359   -2.6492    0.0000 O   0  0  0  0  0  0  0  0  0  0  0  0
    2.2641   -2.6492    0.0000 O   0  0  0  0  0  0  0  0  0  0  0  0
    3.8989    1.5002    0.0000 C   0  0  0  0  0  0  0  0  0  0  0  0
    3.8987    3.0002    0.0000 O   0  0  0  0  0  0  0  0  0  0  0  0
    5.1981    0.7504    0.0000 N   0  0  0  0  0  0  0  0  0  0  0  0
    6.4970    1.5006    0.0000 C   0  0  0  0  0  0  0  0  0  0  0  0
    6.4970    3.0006    0.0000 C   0  0  0  0  0  0  0  0  0  0  0  0
    7.7970    3.7506    0.0000 C   0  0  0  0  0  0  0  0  0  0  0  0
    9.0970    3.0006    0.0000 C   0  0  0  0  0  0  0  0  0  0  0  0
    9.0970    1.5006    0.0000 C   0  0  0  0  0  0  0  0  0  0  0  0
    7.7970    0.7506    0.0000 N   0  0  0  0  0  0  0  0  0  0  0  0
  1  2  1  0  0  0  0 
  2  3  1  0  0  0  0 
  3  4  2  0  0  0  0 
  4  5  1  0  0  0  0 
  4  6  1  0  0  0  0 
  6  7  2  0  0  0  0 
  7  8  1  0  0  0  0 
  8  9  2  0  0  0  0 
  9 10  1  0  0  0  0 
 10 11  2  0  0  0  0 
  6 11  1  0  0  0  0 
 11 12  1  0  0  0  0 
  2 12  1  0  0  0  0 
 12 13  2  0  0  0  0 
 12 14  2  0  0  0  0 
  3 15  1  0  0  0  0 
 15 16  2  0  0  0  0 
 15 17  1  0  0  0  0 
 17 18  1  0  0  0  0 
 18 19  2  0  0  0  0 
 19 20  1  0  0  0  0 
 20 21  2  0  0  0  0 
 21 22  1  0  0  0  0 
 22 23  2  0  0  0  0 
 18 23  1  0  0  0  0 
M  END
> <SMILES>
CN1C(=C(O)c2ccccc2S1(=O)=O)C(=O)Nc3ccccn3

$$$$

  CDK     01261921162D

 15 15  0  0  0  0  0  0  0  0999 V2000
   -5.1970    1.5006    0.0000 C   0  0  0  0  0  0  0  0  0  0  0  0
   -3.8981    0.7504    0.0000 C   0  0  0  0  0  0  0  0  0  0  0  0
   -3.8983   -0.7496    0.0000 C   0  0  0  0  0  0  0  0  0  0  0  0
   -2.5989    1.5002    0.0000 C   0  0  0  0  0  0  0  0  0  0  0  0
   -1.3000    0.7500    0.0000 C   0  0  0  0  0  0  0  0  0  0  0  0
    0.0000    1.5000    0.0000 C   0  0  0  0  0  0  0  0  0  0  0  0
    1.3000    0.7500    0.0000 C   0  0  0  0  0  0  0  0  0  0  0  0
    1.3000   -0.7500    0.0000 C   0  0  0  0  0  0  0  0  0  0  0  0
    0.0000   -1.5000    0.0000 C   0  0  0  0  0  0  0  0  0  0  0  0
   -1.3000   -0.7500    0.0000 C   0  0  0  0  0  0  0  0  0  0  0  0
    2.5989   -1.5002    0.0000 C   0  0  0  0  0  0  0  0  0  0  0  0
    2.5987   -3.0002    0.0000 C   0  0  0  0  0  0  0  0  0  0  0  0
    3.8981   -0.7504    0.0000 C   0  0  0  0  0  0  0  0  0  0  0  0
    3.8983    0.7496    0.0000 O   0  0  0  0  0  0  0  0  0  0  0  0
    5.1970   -1.5006    0.0000 O   0  0  0  0  0  0  0  0  0  0  0  0
  1  2  1  0  0  0  0 
  2  3  1  0  0  0  0 
  2  4  1  0  0  0  0 
  4  5  1  0  0  0  0 
  5  6  2  0  0  0  0 
  6  7  1  0  0  0  0 
  7  8  2  0  0  0  0 
  8  9  1  0  0  0  0 
  9 10  2  0  0  0  0 
  5 10  1  0  0  0  0 
  8 11  1  0  0  0  0 
 11 12  1  0  0  0  0 
 11 13  1  0  0  0  0 
 13 14  2  0  0  0  0 
 13 15  1  0  0  0  0 
M  END
> <SMILES>
CC(C)Cc1ccc(cc1)C(C)C(=O)O

$$$$

  CDK     01261921162D

 24 24  0  0  1  0  0  0  0  0999 V2000
   -2.1596    0.0827    0.0000 C   0  0  0  0  0  0  0  0  0  0  0  0
   -0.7500   -0.4300    0.0000 C   0  0  0  0  0  0  0  0  0  0  0  0
   -1.0103   -1.9072    0.0000 C   0  0  0  0  0  0  0  0  0  0  0  0
    0.0000    0.8700    0.0000 C   0  0  0  0  0  0  0  0  0  0  0  0
    0.7500   -0.4300    0.0000 C   0  0  2  0  0  0  0  0  0  0  0  0
    2.0489   -1.1802    0.0000 C   0  0  0  0  0  0  0  0  0  0  0  0
    2.0487   -2.6802    0.0000 O   0  0  0  0  0  0  0  0  0  0  0  0
    3.3481   -0.4304    0.0000 N   0  0  0  0  0  0  0  0  0  0  0  0
    4.6470   -1.1806    0.0000 C   0  0  0  0  0  0  0  0  0  0  0  0
    5.9462   -0.4308    0.0000 C   0  0  0  0  0  0  0  0  0  0  0  0
    7.2451   -1.1810    0.0000 C   0  0  0  0  0  0  0  0  0  0  0  0
    8.5442   -0.4312    0.0000 C   0  0  0  0  0  0  0  0  0  0  0  0
    9.8431   -1.1815    0.0000 C   0  0  0  0  0  0  0  0  0  0  0  0
   11.1423   -0.4317    0.0000 C   0  0  0  0  0  0  0  0  0  0  0  0
   12.4412   -1.1819    0.0000 S   0  0  0  0  0  0  0  0  0  0  0  0
   13.7404   -0.4321    0.0000 C   0  0  0  0  0  0  0  0  0  0  0  0
   15.0393   -1.1823    0.0000 C   0  0  2  0  0  0  0  0  0  0  0  0
   15.0391   -2.6823    0.0000 N   0  0  0  0  0  0  0  0  0  0  0  0
   16.3385   -0.4325    0.0000 C   0  0  0  0  0  0  0  0  0  0  0  0
   16.3387    1.0675    0.0000 O   0  0  0  0  0  0  0  0  0  0  0  0
   17.6374   -1.1827    0.0000 O   0  0  0  0  0  0  0  0  0  0  0  0
    4.6468   -2.6806    0.0000 C   0  0  0  0  0  0  0  0  0  0  0  0
    5.9457   -3.4308    0.0000 O   0  0  0  0  0  0  0  0  0  0  0  0
    3.3476   -3.4304    0.0000 O   0  0  0  0  0  0  0  0  0  0  0  0
  1  2  1  0  0  0  0 
  2  3  1  0  0  0  0 
  2  4  1  0  0  0  0 
  4  5  1  0  0  0  0 
  2  5  1  0  0  0  0 
  5  6  1  6  0  0  0 
  6  7  2  0  0  0  0 
  6  8  1  0  0  0  0 
  8  9  1  4  0  0  0 
  9 10  2  0  0  0  0 
 10 11  1  0  0  0  0 
 11 12  1  0  0  0  0 
 12 13  1  0  0  0  0 
 13 14  1  0  0  0  0 
 14 15  1  0  0  0  0 
 15 16  1  0  0  0  0 
 16 17  1  0  0  0  0 
 17 18  1  1  0  0  0 
 17 19  1  0  0  0  0 
 19 20  2  0  0  0  0 
 19 21  1  0  0  0  0 
  9 22  1  0  0  0  0 
 22 23  2  0  0  0  0 
 22 24  1  0  0  0  0 
M  END
> <SMILES>
CC1(C)C[C@@H]1C(=O)NC(=C/CCCCSC[C@H](N)C(=O)O)C(=O)O

$$$$

  CDK     01261921162D

 13 12  0  0  1  0  0  0  0  0999 V2000
    6.4952   -2.2500    0.0000 N   0  0  0  0  0  0  0  0  0  0  0  0
    6.4952   -0.7500    0.0000 C   0  0  2  0  0  0  0  0  0  0  0  0
    5.1962   -0.0000    0.0000 C   0  0  0  0  0  0  0  0  0  0  0  0
    3.8971   -0.7500    0.0000 S   0  0  0  0  0  0  0  0  0  0  0  0
    2.5981   -0.0000    0.0000 C   0  0  0  0  0  0  0  0  0  0  0  0
    3.5623    1.1491    0.0000 F   0  0  0  0  0  0  0  0  0  0  0  0
    1.6339    1.1491    0.0000 F   0  0  0  0  0  0  0  0  0  0  0  0
    1.2990   -0.7500    0.0000 C   0  0  0  0  0  0  0  0  0  0  0  0
    0.0000    0.0000    0.0000 F   0  0  0  0  0  0  0  0  0  0  0  0
    1.2990   -2.2500    0.0000 Cl  0  0  0  0  0  0  0  0  0  0  0  0
    7.7942   -0.0000    0.0000 C   0  0  0  0  0  0  0  0  0  0  0  0
    7.7942    1.5000    0.0000 O   0  0  0  0  0  0  0  0  0  0  0  0
    9.0933   -0.7500    0.0000 O   0  0  0  0  0  0  0  0  0  0  0  0
  2  1  1  6  0  0  0 
  2  3  1  0  0  0  0 
  3  4  1  0  0  0  0 
  4  5  1  0  0  0  0 
  5  6  1  0  0  0  0 
  5  7  1  0  0  0  0 
  5  8  1  0  0  0  0 
  8  9  1  0  0  0  0 
  8 10  1  0  0  0  0 
  2 11  1  0  0  0  0 
 11 12  2  0  0  0  0 
 11 13  1  0  0  0  0 
M  END
> <SMILES>
N[C@H](CSC(F)(F)C(F)Cl)C(=O)O

$$$$

  CDK     01261921162D

 19 20  0  0  0  0  0  0  0  0999 V2000
    4.8756    0.8744    0.0000 O   0  0  0  0  0  0  0  0  0  0  0  0
    3.5679    0.1397    0.0000 C   0  0  0  0  0  0  0  0  0  0  0  0
    3.5504   -1.3602    0.0000 O   0  0  0  0  0  0  0  0  0  0  0  0
    2.2777    0.9048    0.0000 C   0  0  0  0  0  0  0  0  0  0  0  0
    0.9700    0.1700    0.0000 C   0  0  0  0  0  0  0  0  0  0  0  0
    0.9500   -1.3100    0.0000 C   0  0  0  0  0  0  0  0  0  0  0  0
   -0.3400   -2.0400    0.0000 C   0  0  0  0  0  0  0  0  0  0  0  0
   -1.6100   -1.2900    0.0000 C   0  0  0  0  0  0  0  0  0  0  0  0
   -1.6200    0.2100    0.0000 C   0  0  0  0  0  0  0  0  0  0  0  0
   -0.3000    0.9200    0.0000 C   0  0  0  0  0  0  0  0  0  0  0  0
   -0.2700    2.4197    0.0000 N   0  0  0  0  0  0  0  0  0  0  0  0
   -1.5538    3.1955    0.0000 C   0  0  0  0  0  0  0  0  0  0  0  0
   -2.8684    2.4714    0.0000 C   0  0  0  0  0  0  0  0  0  0  0  0
   -2.8982    0.9717    0.0000 Cl  0  0  0  0  0  0  0  0  0  0  0  0
   -4.1533    3.2470    0.0000 C   0  0  0  0  0  0  0  0  0  0  0  0
   -4.1236    4.7467    0.0000 C   0  0  0  0  0  0  0  0  0  0  0  0
   -2.8090    5.4708    0.0000 C   0  0  0  0  0  0  0  0  0  0  0  0
   -1.5241    4.6952    0.0000 C   0  0  0  0  0  0  0  0  0  0  0  0
   -0.2106    5.4195    0.0000 Cl  0  0  0  0  0  0  0  0  0  0  0  0
  1  2  1  0  0  0  0 
  2  3  2  0  0  0  0 
  2  4  1  0  0  0  0 
  4  5  1  0  0  0  0 
  5  6  2  0  0  0  0 
  6  7  1  0  0  0  0 
  7  8  2  0  0  0  0 
  8  9  1  0  0  0  0 
  9 10  2  0  0  0  0 
  5 10  1  0  0  0  0 
 10 11  1  0  0  0  0 
 11 12  1  0  0  0  0 
 12 13  2  0  0  0  0 
 13 14  1  0  0  0  0 
 13 15  1  0  0  0  0 
 15 16  2  0  0  0  0 
 16 17  1  0  0  0  0 
 17 18  2  0  0  0  0 
 12 18  1  0  0  0  0 
 18 19  1  0  0  0  0 
M  END
> <SMILES>
OC(=O)Cc1ccccc1Nc2c(Cl)cccc2Cl

$$$$

  CDK     01261921162D

 31 34  0  0  1  0  0  0  0  0999 V2000
    7.8936    0.9787    0.0000 C   0  0  0  0  0  0  0  0  0  0  0  0
    7.5772   -0.4876    0.0000 N   0  0  0  0  0  0  0  0  0  0  0  0
    8.5722   -1.6128    0.0000 N   0  0  0  0  0  0  0  0  0  0  0  0
    7.8230   -2.9038    0.0000 N   0  0  0  0  0  0  0  0  0  0  0  0
    6.3568   -2.5874    0.0000 N   0  0  0  0  0  0  0  0  0  0  0  0
    6.2067   -1.1023    0.0000 C   0  0  0  0  0  0  0  0  0  0  0  0
    4.9081   -0.3516    0.0000 S   0  0  0  0  0  0  0  0  0  0  0  0
    3.6086   -1.1008    0.0000 C   0  0  0  0  0  0  0  0  0  0  0  0
    2.3100   -0.3500    0.0000 C   0  0  0  0  0  0  0  0  0  0  0  0
    0.9900   -1.1100    0.0000 C   0  0  0  0  0  0  0  0  0  0  0  0
   -0.3000   -0.3300    0.0000 N   0  0  0  0  0  0  0  0  0  0  0  0
   -0.3000    1.1700    0.0000 C   0  0  2  0  0  0  0  0  0  0  0  0
    0.9900    1.9200    0.0000 S   0  0  0  0  0  0  0  0  0  0  0  0
    2.3100    1.1700    0.0000 C   0  0  0  0  0  0  0  0  0  0  0  0
   -1.8000    1.1700    0.0000 C   0  0  2  0  0  0  0  0  0  0  0  0
   -2.8607    2.2307    0.0000 N   0  0  0  0  0  0  0  0  0  0  0  0
   -4.3095    1.8424    0.0000 C   0  0  0  0  0  0  0  0  0  0  0  0
   -4.6978    0.3935    0.0000 O   0  0  0  0  0  0  0  0  0  0  0  0
   -5.3702    2.9031    0.0000 C   0  0  2  0  0  0  0  0  0  0  0  0
   -4.9820    4.3520    0.0000 O   0  0  0  0  0  0  0  0  0  0  0  0
   -6.8191    2.5149    0.0000 C   0  0  0  0  0  0  0  0  0  0  0  0
   -7.2071    1.0650    0.0000 C   0  0  0  0  0  0  0  0  0  0  0  0
   -8.6560    0.6768    0.0000 C   0  0  0  0  0  0  0  0  0  0  0  0
   -9.7169    1.7384    0.0000 C   0  0  0  0  0  0  0  0  0  0  0  0
   -9.3289    3.1882    0.0000 C   0  0  0  0  0  0  0  0  0  0  0  0
   -7.8800    3.5765    0.0000 C   0  0  0  0  0  0  0  0  0  0  0  0
   -1.8000   -0.3300    0.0000 C   0  0  0  0  0  0  0  0  0  0  0  0
   -2.8607   -1.3907    0.0000 O   0  0  0  0  0  0  0  0  0  0  0  0
    0.9739   -2.6099    0.0000 C   0  0  0  0  0  0  0  0  0  0  0  0
   -0.3331   -3.3460    0.0000 O   0  0  0  0  0  0  0  0  0  0  0  0
    2.2649   -3.3738    0.0000 O   0  0  0  0  0  0  0  0  0  0  0  0
  1  2  1  0  0  0  0 
  2  3  1  0  0  0  0 
  3  4  2  0  0  0  0 
  4  5  1  0  0  0  0 
  5  6  2  0  0  0  0 
  2  6  1  0  0  0  0 
  6  7  1  0  0  0  0 
  7  8  1  0  0  0  0 
  8  9  1  0  0  0  0 
  9 10  2  0  0  0  0 
 10 11  1  0  0  0  0 
 12 11  1  1  0  0  0 
 12 13  1  0  0  0  0 
 13 14  1  0  0  0  0 
  9 14  1  0  0  0  0 
 12 15  1  0  0  0  0 
 15 16  1  1  0  0  0 
 16 17  1  0  0  0  0 
 17 18  2  0  0  0  0 
 17 19  1  0  0  0  0 
 19 20  1  1  0  0  0 
 19 21  1  0  0  0  0 
 21 22  2  0  0  0  0 
 22 23  1  0  0  0  0 
 23 24  2  0  0  0  0 
 24 25  1  0  0  0  0 
 25 26  2  0  0  0  0 
 21 26  1  0  0  0  0 
 15 27  1  0  0  0  0 
 11 27  1  0  0  0  0 
 27 28  2  0  0  0  0 
 10 29  1  0  0  0  0 
 29 30  2  0  0  0  0 
 29 31  1  0  0  0  0 
M  END
> <SMILES>
Cn1nnnc1SCC2=C(N3[C@H](SC2)[C@H](NC(=O)[C@H](O)c4ccccc4)C3=O)C(=O)O

$$$$

  CDK     01261921162D

  9  8  0  0  0  0  0  0  0  0999 V2000
    0.0000    0.0000    0.0000 O   0  0  0  0  0  0  0  0  0  0  0  0
    1.2990   -0.7500    0.0000 S   0  0  0  0  0  0  0  0  0  0  0  0
    0.3349   -1.8991    0.0000 O   0  0  0  0  0  0  0  0  0  0  0  0
    2.2632   -1.8991    0.0000 O   0  0  0  0  0  0  0  0  0  0  0  0
    2.5981   -0.0000    0.0000 C   0  0  0  0  0  0  0  0  0  0  0  0
    3.8971   -0.7500    0.0000 C   0  0  0  0  0  0  0  0  0  0  0  0
    3.8971   -2.2500    0.0000 S   0  0  0  0  0  0  0  0  0  0  0  0
    5.1962   -0.0000    0.0000 C   0  0  0  0  0  0  0  0  0  0  0  0
    6.4952   -0.7500    0.0000 S   0  0  0  0  0  0  0  0  0  0  0  0
  1  2  1  0  0  0  0 
  2  3  2  0  0  0  0 
  2  4  2  0  0  0  0 
  2  5  1  0  0  0  0 
  5  6  1  0  0  0  0 
  6  7  1  0  0  0  0 
  6  8  1  0  0  0  0 
  8  9  1  0  0  0  0 
M  END
> <SMILES>
OS(=O)(=O)CC(S)CS

$$$$

  CDK     01261921162D

 26 30  0  0  0  0  0  0  0  0999 V2000
   -6.2070    1.5006    0.0000 C   0  0  0  0  0  0  0  0  0  0  0  0
   -4.9081    0.7504    0.0000 C   0  0  0  0  0  0  0  0  0  0  0  0
   -3.6089    1.5002    0.0000 C   0  0  0  0  0  0  0  0  0  0  0  0
   -2.3100    0.7500    0.0000 N   0  0  0  0  0  0  0  0  0  0  0  0
   -2.3100   -0.7500    0.0000 C   0  0  0  0  0  0  0  0  0  0  0  0
   -3.6089   -1.5002    0.0000 O   0  0  0  0  0  0  0  0  0  0  0  0
   -1.0100   -1.5000    0.0000 N   0  0  0  0  0  0  0  0  0  0  0  0
   -1.0100   -3.0000    0.0000 C   0  0  0  0  0  0  0  0  0  0  0  0
    0.2890   -3.7500    0.0000 C   0  0  0  0  0  0  0  0  0  0  0  0
    0.2890   -5.2500    0.0000 C   0  0  0  0  0  0  0  0  0  0  0  0
    0.2900   -0.7500    0.0000 C   0  0  0  0  0  0  0  0  0  0  0  0
    1.7200   -1.2100    0.0000 N   0  0  0  0  0  0  0  0  0  0  0  0
    2.6000    0.0000    0.0000 C   0  0  0  0  0  0  0  0  0  0  0  0
    1.7200    1.2100    0.0000 N   0  0  0  0  0  0  0  0  0  0  0  0
    0.2900    0.7500    0.0000 C   0  0  0  0  0  0  0  0  0  0  0  0
   -1.0100    1.5000    0.0000 C   0  0  0  0  0  0  0  0  0  0  0  0
   -1.0100    3.0000    0.0000 O   0  0  0  0  0  0  0  0  0  0  0  0
    5.5400   -0.0000    0.0000 C   0  0  0  0  0  0  0  0  0  0  0  0
    6.7775   -0.8477    0.0000 C   0  0  0  0  0  0  0  0  0  0  0  0
    8.1304   -0.1998    0.0000 C   0  0  0  0  0  0  0  0  0  0  0  0
    8.2457    1.2958    0.0000 C   0  0  0  0  0  0  0  0  0  0  0  0
    7.0082    2.1434    0.0000 C   0  0  0  0  0  0  0  0  0  0  0  0
    4.8143    3.1941    0.0000 C   0  0  0  0  0  0  0  0  0  0  0  0
    5.7271   -2.4254    0.0000 C   0  0  0  0  0  0  0  0  0  0  0  0
    7.5736   -2.5678    0.0000 C   0  0  0  0  0  0  0  0  0  0  0  0
    5.6553    1.4956    0.0000 C   0  0  0  0  0  0  0  0  0  0  0  0
  1  2  1  0  0  0  0 
  2  3  1  0  0  0  0 
  3  4  1  0  0  0  0 
  4  5  1  0  0  0  0 
  5  6  2  0  0  0  0 
  5  7  1  0  0  0  0 
  7  8  1  0  0  0  0 
  8  9  1  0  0  0  0 
  9 10  1  0  0  0  0 
  7 11  1  0  0  0  0 
 11 12  1  0  0  0  0 
 12 13  1  0  0  0  0 
 13 14  2  0  0  0  0 
 14 15  1  0  0  0  0 
 11 15  2  0  0  0  0 
 15 16  1  0  0  0  0 
  4 16  1  0  0  0  0 
 16 17  2  0  0  0  0 
 13 18  1  0  0  0  0 
 18 19  1  0  0  0  0 
 19 20  1  0  0  0  0 
 20 21  1  0  0  0  0 
 21 22  1  0  0  0  0 
 22 23  1  0  0  0  0 
 23 24  1  0  0  0  0 
 18 24  1  0  0  0  0 
 24 25  1  0  0  0  0 
 20 25  1  0  0  0  0 
 22 26  1  0  0  0  0 
 18 26  1  0  0  0  0 
M  END
> <SMILES>
CCCN1C(=O)N(CCC)c2[nH]c(nc2C1=O)C34CC5CC(CC3C5)C4

$$$$

  CDK     01261921162D

 32 35  0  0  1  0  0  0  0  0999 V2000
   -2.0025   -3.1900    0.0000 C   0  0  0  0  0  0  0  0  0  0  0  0
   -2.0000   -1.6900    0.0000 C   0  0  2  0  0  0  0  0  0  0  0  0
   -0.7000   -0.9400    0.0000 C   0  0  1  0  0  0  0  0  0  0  0  0
    0.6000   -1.6900    0.0000 C   0  0  2  0  0  0  0  0  0  0  0  0
    0.6000   -3.1900    0.0000 O   0  0  0  0  0  0  0  0  0  0  0  0
    1.9000   -0.9400    0.0000 C   0  0  1  0  0  0  0  0  0  0  0  0
    3.2000   -1.6900    0.0000 C   0  0  2  0  0  0  0  0  0  0  0  0
    3.2000   -3.1900    0.0000 N   0  0  0  0  0  0  0  0  0  0  0  0
    4.4990   -3.9400    0.0000 C   0  0  0  0  0  0  0  0  0  0  0  0
    1.9010   -3.9400    0.0000 C   0  0  0  0  0  0  0  0  0  0  0  0
    4.5000   -0.9400    0.0000 C   0  0  0  0  0  0  0  0  0  0  0  0
    4.5000    0.5600    0.0000 C   0  0  0  0  0  0  0  0  0  0  0  0
    5.7989    1.3102    0.0000 C   0  0  0  0  0  0  0  0  0  0  0  0
    5.7987    2.8102    0.0000 O   0  0  0  0  0  0  0  0  0  0  0  0
    7.0981    0.5604    0.0000 N   0  0  0  0  0  0  0  0  0  0  0  0
    3.2000    1.3100    0.0000 C   0  0  0  0  0  0  0  0  0  0  0  0
    3.2000    2.8100    0.0000 O   0  0  0  0  0  0  0  0  0  0  0  0
    1.9000    0.5600    0.0000 C   0  0  2  0  0  0  0  0  0  0  0  0
    1.9000    2.0600    0.0000 O   0  0  0  0  0  0  0  0  0  0  0  0
    0.6000    1.3100    0.0000 C   0  0  0  0  0  0  0  0  0  0  0  0
   -0.7000    0.5600    0.0000 C   0  0  0  0  0  0  0  0  0  0  0  0
   -2.0000    1.3100    0.0000 C   0  0  0  0  0  0  0  0  0  0  0  0
   -2.0025    2.8100    0.0000 O   0  0  0  0  0  0  0  0  0  0  0  0
   -3.2900    0.5600    0.0000 C   0  0  0  0  0  0  0  0  0  0  0  0
   -4.5900    1.3100    0.0000 C   0  0  0  0  0  0  0  0  0  0  0  0
   -4.5900    2.8100    0.0000 O   0  0  0  0  0  0  0  0  0  0  0  0
   -5.8900    0.5600    0.0000 C   0  0  0  0  0  0  0  0  0  0  0  0
   -5.8900   -0.9400    0.0000 C   0  0  0  0  0  0  0  0  0  0  0  0
   -4.5900   -1.6900    0.0000 C   0  0  0  0  0  0  0  0  0  0  0  0
   -3.2900   -0.9400    0.0000 C   0  0  0  0  0  0  0  0  0  0  0  0
    0.6000    2.8100    0.0000 O   0  0  0  0  0  0  0  0  0  0  0  0
    5.7989   -1.6902    0.0000 O   0  0  0  0  0  0  0  0  0  0  0  0
  2  1  1  1  0  0  0 
  2  3  1  0  0  0  0 
  3  4  1  0  0  0  0 
  4  5  1  1  0  0  0 
  6  4  1  6  0  0  0 
  6  7  1  0  0  0  0 
  7  8  1  1  0  0  0 
  8  9  1  0  0  0  0 
  8 10  1  0  0  0  0 
  7 11  1  0  0  0  0 
 11 12  2  0  0  0  0 
 12 13  1  0  0  0  0 
 13 14  2  0  0  0  0 
 13 15  1  0  0  0  0 
 12 16  1  0  0  0  0 
 16 17  2  0  0  0  0 
 16 18  1  0  0  0  0 
  6 18  1  0  0  0  0 
 18 19  1  1  0  0  0 
 18 20  1  0  0  0  0 
 20 21  2  0  0  0  0 
  3 21  1  6  0  0  0 
 21 22  1  0  0  0  0 
 22 23  2  0  0  0  0 
 22 24  1  0  0  0  0 
 24 25  2  0  0  0  0 
 25 26  1  0  0  0  0 
 25 27  1  0  0  0  0 
 27 28  2  0  0  0  0 
 28 29  1  0  0  0  0 
 29 30  2  0  0  0  0 
  2 30  1  0  0  0  0 
 24 30  1  0  0  0  0 
 20 31  1  0  0  0  0 
 11 32  1  0  0  0  0 
M  END
> <SMILES>
C[C@@H]1[C@H]2[C@H](O)[C@H]3[C@H](N(C)C)C(=C(C(=O)N)C(=O)[C@@]3(O)C(=C2C(=O)c4c(O)cccc14)O)O

$$$$

  CDK     01261921162D

 11 10  0  0  1  0  0  0  0  0999 V2000
    6.4952   -2.2500    0.0000 N   0  0  0  0  0  0  0  0  0  0  0  0
    6.4952   -0.7500    0.0000 C   0  0  2  0  0  0  0  0  0  0  0  0
    5.1962   -0.0000    0.0000 C   0  0  0  0  0  0  0  0  0  0  0  0
    3.8971   -0.7500    0.0000 S   0  0  0  0  0  0  0  0  0  0  0  0
    2.5981   -0.0000    0.0000 C   0  0  0  0  0  0  0  0  0  0  0  0
    1.2990   -0.7500    0.0000 C   0  0  0  0  0  0  0  0  0  0  0  0
    0.0000    0.0000    0.0000 Cl  0  0  0  0  0  0  0  0  0  0  0  0
    2.5981    1.5000    0.0000 Cl  0  0  0  0  0  0  0  0  0  0  0  0
    7.7942   -0.0000    0.0000 C   0  0  0  0  0  0  0  0  0  0  0  0
    7.7942    1.5000    0.0000 O   0  0  0  0  0  0  0  0  0  0  0  0
    9.0933   -0.7500    0.0000 O   0  0  0  0  0  0  0  0  0  0  0  0
  2  1  1  6  0  0  0 
  2  3  1  0  0  0  0 
  3  4  1  0  0  0  0 
  4  5  1  0  0  0  0 
  5  6  2  0  0  0  0 
  6  7  1  0  0  0  0 
  5  8  1  4  0  0  0 
  2  9  1  0  0  0  0 
  9 10  2  0  0  0  0 
  9 11  1  0  0  0  0 
M  END
> <SMILES>
N[C@H](CSC(=CCl)Cl)C(=O)O

$$$$

  CDK     01261921162D

 10  9  0  0  0  0  0  0  0  0999 V2000
   10.3923   -2.2500    0.0000 C   0  0  0  0  0  0  0  0  0  0  0  0
    9.0933   -1.5000    0.0000 C   0  0  0  0  0  0  0  0  0  0  0  0
    7.7942   -2.2500    0.0000 C   0  0  0  0  0  0  0  0  0  0  0  0
    6.4952   -1.5000    0.0000 C   0  0  0  0  0  0  0  0  0  0  0  0
    5.1962   -2.2500    0.0000 C   0  0  0  0  0  0  0  0  0  0  0  0
    3.8971   -1.5000    0.0000 C   0  0  0  0  0  0  0  0  0  0  0  0
    2.5981   -2.2500    0.0000 C   0  0  0  0  0  0  0  0  0  0  0  0
    1.2990   -1.5000    0.0000 C   0  0  0  0  0  0  0  0  0  0  0  0
    1.2990    0.0000    0.0000 O   0  0  0  0  0  0  0  0  0  0  0  0
   -0.0000   -2.2500    0.0000 O   0  0  0  0  0  0  0  0  0  0  0  0
  1  2  1  0  0  0  0 
  2  3  1  0  0  0  0 
  3  4  1  0  0  0  0 
  4  5  1  0  0  0  0 
  5  6  1  0  0  0  0 
  6  7  1  0  0  0  0 
  7  8  1  0  0  0  0 
  8  9  2  0  0  0  0 
  8 10  1  0  0  0  0 
M  END
> <SMILES>
CCCCCCCC(=O)O

$$$$

  CDK     01261921162D

 10  9  0  0  0  0  0  0  0  0999 V2000
    0.0000    0.0000    0.0000 O   0  0  0  0  0  0  0  0  0  0  0  0
    1.2990   -0.7500    0.0000 C   0  0  0  0  0  0  0  0  0  0  0  0
    1.2990   -2.2500    0.0000 O   0  0  0  0  0  0  0  0  0  0  0  0
    2.5981   -0.0000    0.0000 C   0  0  0  0  0  0  0  0  0  0  0  0
    3.8971   -0.7500    0.0000 C   0  0  0  0  0  0  0  0  0  0  0  0
    5.1962   -0.0000    0.0000 C   0  0  0  0  0  0  0  0  0  0  0  0
    5.1962    1.5000    0.0000 O   0  0  0  0  0  0  0  0  0  0  0  0
    6.4952   -0.7500    0.0000 C   0  0  0  0  0  0  0  0  0  0  0  0
    6.4952   -2.2500    0.0000 O   0  0  0  0  0  0  0  0  0  0  0  0
    7.7942   -0.0000    0.0000 O   0  0  0  0  0  0  0  0  0  0  0  0
  1  2  1  0  0  0  0 
  2  3  2  0  0  0  0 
  2  4  1  0  0  0  0 
  4  5  1  0  0  0  0 
  5  6  1  0  0  0  0 
  6  7  2  0  0  0  0 
  6  8  1  0  0  0  0 
  8  9  2  0  0  0  0 
  8 10  1  0  0  0  0 
M  END
> <SMILES>
OC(=O)CCC(=O)C(=O)O

$$$$

  CDK     01261921162D

 29 32  0  0  1  0  0  0  0  0999 V2000
   10.0649   -1.4643    0.0000 C   0  0  0  0  0  0  0  0  0  0  0  0
    8.5722   -1.6128    0.0000 C   0  0  0  0  0  0  0  0  0  0  0  0
    7.8230   -2.9038    0.0000 N   0  0  0  0  0  0  0  0  0  0  0  0
    6.3568   -2.5874    0.0000 N   0  0  0  0  0  0  0  0  0  0  0  0
    6.2067   -1.1023    0.0000 C   0  0  0  0  0  0  0  0  0  0  0  0
    4.9081   -0.3516    0.0000 S   0  0  0  0  0  0  0  0  0  0  0  0
    3.6086   -1.1008    0.0000 C   0  0  0  0  0  0  0  0  0  0  0  0
    2.3100   -0.3500    0.0000 C   0  0  0  0  0  0  0  0  0  0  0  0
    0.9900   -1.1100    0.0000 C   0  0  0  0  0  0  0  0  0  0  0  0
   -0.3000   -0.3300    0.0000 N   0  0  0  0  0  0  0  0  0  0  0  0
   -0.3000    1.1700    0.0000 C   0  0  2  0  0  0  0  0  0  0  0  0
    0.9900    1.9200    0.0000 S   0  0  0  0  0  0  0  0  0  0  0  0
    2.3100    1.1700    0.0000 C   0  0  0  0  0  0  0  0  0  0  0  0
   -1.8000    1.1700    0.0000 C   0  0  2  0  0  0  0  0  0  0  0  0
   -2.8607    2.2307    0.0000 N   0  0  0  0  0  0  0  0  0  0  0  0
   -4.3095    1.8424    0.0000 C   0  0  0  0  0  0  0  0  0  0  0  0
   -4.6978    0.3935    0.0000 O   0  0  0  0  0  0  0  0  0  0  0  0
   -5.3702    2.9031    0.0000 C   0  0  0  0  0  0  0  0  0  0  0  0
   -6.8191    2.5149    0.0000 N   0  0  0  0  0  0  0  0  0  0  0  0
   -7.3546    1.1216    0.0000 C   0  0  0  0  0  0  0  0  0  0  0  0
   -8.8551    1.1907    0.0000 N   0  0  0  0  0  0  0  0  0  0  0  0
   -9.2360    2.6437    0.0000 N   0  0  0  0  0  0  0  0  0  0  0  0
   -7.9852    3.4583    0.0000 N   0  0  0  0  0  0  0  0  0  0  0  0
   -1.8000   -0.3300    0.0000 C   0  0  0  0  0  0  0  0  0  0  0  0
   -2.8607   -1.3907    0.0000 O   0  0  0  0  0  0  0  0  0  0  0  0
    0.9739   -2.6099    0.0000 C   0  0  0  0  0  0  0  0  0  0  0  0
   -0.3331   -3.3460    0.0000 O   0  0  0  0  0  0  0  0  0  0  0  0
    2.2649   -3.3738    0.0000 O   0  0  0  0  0  0  0  0  0  0  0  0
    7.5772   -0.4876    0.0000 S   0  0  0  0  0  0  0  0  0  0  0  0
  1  2  1  0  0  0  0 
  2  3  2  0  0  0  0 
  3  4  1  0  0  0  0 
  4  5  2  0  0  0  0 
  5  6  1  0  0  0  0 
  6  7  1  0  0  0  0 
  7  8  1  0  0  0  0 
  8  9  2  0  0  0  0 
  9 10  1  0  0  0  0 
 11 10  1  1  0  0  0 
 11 12  1  0  0  0  0 
 12 13  1  0  0  0  0 
  8 13  1  0  0  0  0 
 11 14  1  0  0  0  0 
 14 15  1  1  0  0  0 
 15 16  1  0  0  0  0 
 16 17  2  0  0  0  0 
 16 18  1  0  0  0  0 
 18 19  1  0  0  0  0 
 19 20  1  0  0  0  0 
 20 21  2  0  0  0  0 
 21 22  1  0  0  0  0 
 22 23  2  0  0  0  0 
 19 23  1  0  0  0  0 
 14 24  1  0  0  0  0 
 10 24  1  0  0  0  0 
 24 25  2  0  0  0  0 
  9 26  1  0  0  0  0 
 26 27  2  0  0  0  0 
 26 28  1  0  0  0  0 
  5 29  1  0  0  0  0 
  2 29  1  0  0  0  0 
M  END
> <SMILES>
Cc1nnc(SCC2=C(N3[C@H](SC2)[C@H](NC(=O)Cn4cnnn4)C3=O)C(=O)O)s1

$$$$

  CDK     01261921162D

 18 19  0  0  1  0  0  0  0  0999 V2000
    3.8989   -1.5002    0.0000 C   0  0  0  0  0  0  0  0  0  0  0  0
    2.6000   -0.7500    0.0000 C   0  0  1  0  0  0  0  0  0  0  0  0
    2.6000    0.7500    0.0000 O   0  0  0  0  0  0  0  0  0  0  0  0
    1.3000    1.5000    0.0000 C   0  0  0  0  0  0  0  0  0  0  0  0
    0.0000    0.7500    0.0000 C   0  0  0  0  0  0  0  0  0  0  0  0
   -1.3000    1.5000    0.0000 C   0  0  0  0  0  0  0  0  0  0  0  0
   -2.6000    0.7500    0.0000 C   0  0  0  0  0  0  0  0  0  0  0  0
   -3.8989    1.5002    0.0000 C   0  0  0  0  0  0  0  0  0  0  0  0
   -3.8987    3.0002    0.0000 O   0  0  0  0  0  0  0  0  0  0  0  0
   -5.1981    0.7504    0.0000 O   0  0  0  0  0  0  0  0  0  0  0  0
   -2.6000   -0.7500    0.0000 C   0  0  0  0  0  0  0  0  0  0  0  0
   -3.8989   -1.5002    0.0000 O   0  0  0  0  0  0  0  0  0  0  0  0
   -1.3000   -1.5000    0.0000 C   0  0  0  0  0  0  0  0  0  0  0  0
    0.0000   -0.7500    0.0000 C   0  0  0  0  0  0  0  0  0  0  0  0
    1.3000   -1.5000    0.0000 C   0  0  2  0  0  0  0  0  0  0  0  0
    1.3000   -3.0000    0.0000 C   0  0  0  0  0  0  0  0  0  0  0  0
   -1.3000   -3.0000    0.0000 C   0  0  0  0  0  0  0  0  0  0  0  0
   -1.3000    3.0000    0.0000 O   0  0  0  0  0  0  0  0  0  0  0  0
  2  1  1  6  0  0  0 
  2  3  1  0  0  0  0 
  3  4  1  0  0  0  0 
  4  5  2  0  0  0  0 
  5  6  1  0  0  0  0 
  6  7  2  0  0  0  0 
  7  8  1  0  0  0  0 
  8  9  2  0  0  0  0 
  8 10  1  0  0  0  0 
  7 11  1  0  0  0  0 
 11 12  2  0  0  0  0 
 11 13  1  0  0  0  0 
 13 14  2  0  0  0  0 
  5 14  1  0  0  0  0 
 14 15  1  0  0  0  0 
  2 15  1  0  0  0  0 
 15 16  1  1  0  0  0 
 13 17  1  0  0  0  0 
  6 18  1  0  0  0  0 
M  END
> <SMILES>
C[C@H]1OC=C2C(=C(C(=O)O)C(=O)C(=C2[C@@H]1C)C)O

$$$$

  CDK     01261921162D

 17 16  0  0  0  0  0  0  0  0999 V2000
    0.0000    0.0000    0.0000 O   0  0  0  0  0  0  0  0  0  0  0  0
    1.2990   -0.7500    0.0000 S   0  0  0  0  0  0  0  0  0  0  0  0
    0.3349   -1.8991    0.0000 O   0  0  0  0  0  0  0  0  0  0  0  0
    2.2632   -1.8991    0.0000 O   0  0  0  0  0  0  0  0  0  0  0  0
    2.5981   -0.0000    0.0000 C   0  0  0  0  0  0  0  0  0  0  0  0
    3.8971   -0.7500    0.0000 C   0  0  0  0  0  0  0  0  0  0  0  0
    3.8971   -2.2500    0.0000 S   0  0  0  0  0  0  0  0  0  0  0  0
    5.1962   -0.0000    0.0000 C   0  0  0  0  0  0  0  0  0  0  0  0
    6.4952   -0.7500    0.0000 S   0  0  0  0  0  0  0  0  0  0  0  0
    7.7942   -0.0000    0.0000 S   0  0  0  0  0  0  0  0  0  0  0  0
    9.0933   -0.7500    0.0000 C   0  0  0  0  0  0  0  0  0  0  0  0
   10.3923   -0.0000    0.0000 C   0  0  0  0  0  0  0  0  0  0  0  0
   10.3923    1.5000    0.0000 S   0  0  0  0  0  0  0  0  0  0  0  0
   11.6913   -0.7500    0.0000 S   0  0  0  0  0  0  0  0  0  0  0  0
   10.7272   -1.8991    0.0000 O   0  0  0  0  0  0  0  0  0  0  0  0
   12.6555   -1.8991    0.0000 O   0  0  0  0  0  0  0  0  0  0  0  0
   12.9904   -0.0000    0.0000 O   0  0  0  0  0  0  0  0  0  0  0  0
  1  2  1  0  0  0  0 
  2  3  2  0  0  0  0 
  2  4  2  0  0  0  0 
  2  5  1  0  0  0  0 
  5  6  1  0  0  0  0 
  6  7  1  0  0  0  0 
  6  8  1  0  0  0  0 
  8  9  1  0  0  0  0 
  9 10  1  0  0  0  0 
 10 11  1  0  0  0  0 
 11 12  1  0  0  0  0 
 12 13  1  0  0  0  0 
 12 14  1  0  0  0  0 
 14 15  2  0  0  0  0 
 14 16  2  0  0  0  0 
 14 17  1  0  0  0  0 
M  END
> <SMILES>
OS(=O)(=O)CC(S)CSSCC(S)S(=O)(=O)O

$$$$

  CDK     01261921162D

 18 19  0  0  0  0  0  0  0  0999 V2000
    3.5738    3.5627    0.0000 C   0  0  0  0  0  0  0  0  0  0  0  0
    3.5736    2.0627    0.0000 C   0  0  0  0  0  0  0  0  0  0  0  0
    4.8725    1.3124    0.0000 C   0  0  0  0  0  0  0  0  0  0  0  0
    4.8723   -0.1876    0.0000 O   0  0  0  0  0  0  0  0  0  0  0  0
    6.1717    2.0622    0.0000 O   0  0  0  0  0  0  0  0  0  0  0  0
    2.2744    1.3129    0.0000 C   0  0  0  0  0  0  0  0  0  0  0  0
    2.2739   -0.1880    0.0000 C   0  0  0  0  0  0  0  0  0  0  0  0
    0.9744   -0.9388    0.0000 C   0  0  0  0  0  0  0  0  0  0  0  0
   -0.3246   -0.1888    0.0000 C   0  0  0  0  0  0  0  0  0  0  0  0
   -0.3241    1.3120    0.0000 C   0  0  0  0  0  0  0  0  0  0  0  0
   -1.6232    2.0620    0.0000 F   0  0  0  0  0  0  0  0  0  0  0  0
    0.9754    2.0629    0.0000 C   0  0  0  0  0  0  0  0  0  0  0  0
   -1.6238   -0.9386    0.0000 C   0  0  0  0  0  0  0  0  0  0  0  0
   -1.6235   -2.4394    0.0000 C   0  0  0  0  0  0  0  0  0  0  0  0
   -2.9227   -3.1892    0.0000 C   0  0  0  0  0  0  0  0  0  0  0  0
   -4.2221   -2.4382    0.0000 C   0  0  0  0  0  0  0  0  0  0  0  0
   -4.2223   -0.9373    0.0000 C   0  0  0  0  0  0  0  0  0  0  0  0
   -2.9232   -0.1876    0.0000 C   0  0  0  0  0  0  0  0  0  0  0  0
  1  2  1  0  0  0  0 
  2  3  1  0  0  0  0 
  3  4  2  0  0  0  0 
  3  5  1  0  0  0  0 
  2  6  1  0  0  0  0 
  6  7  2  0  0  0  0 
  7  8  1  0  0  0  0 
  8  9  2  0  0  0  0 
  9 10  1  0  0  0  0 
 10 11  1  0  0  0  0 
 10 12  2  0  0  0  0 
  6 12  1  0  0  0  0 
  9 13  1  0  0  0  0 
 13 14  2  0  0  0  0 
 14 15  1  0  0  0  0 
 15 16  2  0  0  0  0 
 16 17  1  0  0  0  0 
 17 18  2  0  0  0  0 
 13 18  1  0  0  0  0 
M  END
> <SMILES>
CC(C(=O)O)c1ccc(c(F)c1)c2ccccc2

$$$$

  CDK     01261921162D

 31 34  0  0  0  0  0  0  0  0999 V2000
    3.4925   -3.8959    0.0000 C   0  0  0  0  0  0  0  0  0  0  0  0
    1.9960   -3.7935    0.0000 C   0  0  0  0  0  0  0  0  0  0  0  0
    1.3874   -5.1654    0.0000 C   0  0  0  0  0  0  0  0  0  0  0  0
    2.2710   -6.3775    0.0000 Br  0  0  0  0  0  0  0  0  0  0  0  0
   -0.1049   -5.3252    0.0000 C   0  0  0  0  0  0  0  0  0  0  0  0
   -0.7126   -6.6966    0.0000 O   0  0  0  0  0  0  0  0  0  0  0  0
   -0.9886   -4.1131    0.0000 C   0  0  0  0  0  0  0  0  0  0  0  0
   -2.4801   -4.2721    0.0000 Br  0  0  0  0  0  0  0  0  0  0  0  0
   -0.3799   -2.7412    0.0000 C   0  0  0  0  0  0  0  0  0  0  0  0
    1.1124   -2.5814    0.0000 C   0  0  0  0  0  0  0  0  0  0  0  0
    1.9144   -0.7711    0.0000 C   0  0  0  0  0  0  0  0  0  0  0  0
    2.7944    0.4389    0.0000 O   0  0  0  0  0  0  0  0  0  0  0  0
    1.9144    1.6489    0.0000 S   0  0  0  0  0  0  0  0  0  0  0  0
    3.2140    2.3980    0.0000 O   0  0  0  0  0  0  0  0  0  0  0  0
    1.3068    3.0203    0.0000 O   0  0  0  0  0  0  0  0  0  0  0  0
    0.4844    1.1889    0.0000 C   0  0  0  0  0  0  0  0  0  0  0  0
   -0.8156    1.9389    0.0000 C   0  0  0  0  0  0  0  0  0  0  0  0
   -2.1156    1.1889    0.0000 C   0  0  0  0  0  0  0  0  0  0  0  0
   -2.1156   -0.3111    0.0000 C   0  0  0  0  0  0  0  0  0  0  0  0
   -0.8156   -1.0611    0.0000 C   0  0  0  0  0  0  0  0  0  0  0  0
    0.4844   -0.3111    0.0000 C   0  0  0  0  0  0  0  0  0  0  0  0
    3.2140   -1.5203    0.0000 C   0  0  0  0  0  0  0  0  0  0  0  0
    3.2152   -3.0211    0.0000 C   0  0  0  0  0  0  0  0  0  0  0  0
    4.5151   -3.7713    0.0000 C   0  0  0  0  0  0  0  0  0  0  0  0
    4.5156   -5.2713    0.0000 Br  0  0  0  0  0  0  0  0  0  0  0  0
    5.8138   -3.0207    0.0000 C   0  0  0  0  0  0  0  0  0  0  0  0
    7.1133   -3.7698    0.0000 O   0  0  0  0  0  0  0  0  0  0  0  0
    5.8125   -1.5198    0.0000 C   0  0  0  0  0  0  0  0  0  0  0  0
    7.1112   -0.7692    0.0000 Br  0  0  0  0  0  0  0  0  0  0  0  0
    4.5126   -0.7696    0.0000 C   0  0  0  0  0  0  0  0  0  0  0  0
    4.5121    0.7304    0.0000 C   0  0  0  0  0  0  0  0  0  0  0  0
  1  2  1  0  0  0  0 
  2  3  2  0  0  0  0 
  3  4  1  0  0  0  0 
  3  5  1  0  0  0  0 
  5  6  1  0  0  0  0 
  5  7  2  0  0  0  0 
  7  8  1  0  0  0  0 
  7  9  1  0  0  0  0 
  9 10  2  0  0  0  0 
  2 10  1  0  0  0  0 
 10 11  1  0  0  0  0 
 11 12  1  0  0  0  0 
 12 13  1  0  0  0  0 
 13 14  2  0  0  0  0 
 13 15  2  0  0  0  0 
 13 16  1  0  0  0  0 
 16 17  2  0  0  0  0 
 17 18  1  0  0  0  0 
 18 19  2  0  0  0  0 
 19 20  1  0  0  0  0 
 20 21  2  0  0  0  0 
 11 21  1  0  0  0  0 
 16 21  1  0  0  0  0 
 11 22  1  0  0  0  0 
 22 23  2  0  0  0  0 
 23 24  1  0  0  0  0 
 24 25  1  0  0  0  0 
 24 26  2  0  0  0  0 
 26 27  1  0  0  0  0 
 26 28  1  0  0  0  0 
 28 29  1  0  0  0  0 
 28 30  2  0  0  0  0 
 22 30  1  0  0  0  0 
 30 31  1  0  0  0  0 
M  END
> <SMILES>
Cc1c(Br)c(O)c(Br)cc1C2(OS(=O)(=O)c3ccccc23)c4cc(Br)c(O)c(Br)c4C

$$$$

  CDK     01261921162D

 44 47  0  0  1  0  0  0  0  0999 V2000
  -10.3952   -0.7508    0.0000 C   0  0  0  0  0  0  0  0  0  0  0  0
   -9.0963   -1.5010    0.0000 O   0  0  0  0  0  0  0  0  0  0  0  0
   -7.7971   -0.7512    0.0000 C   0  0  2  0  0  0  0  0  0  0  0  0
   -7.7966    0.7496    0.0000 C   0  0  1  0  0  0  0  0  0  0  0  0
   -9.0957    1.4996    0.0000 O   0  0  0  0  0  0  0  0  0  0  0  0
   -9.0957    2.9996    0.0000 C   0  0  0  0  0  0  0  0  0  0  0  0
   -7.7966    3.7496    0.0000 O   0  0  0  0  0  0  0  0  0  0  0  0
  -10.3947    3.7496    0.0000 N   0  0  0  0  0  0  0  0  0  0  0  0
   -6.4971    1.5004    0.0000 C   0  0  1  0  0  0  0  0  0  0  0  0
   -6.4974    3.0004    0.0000 O   0  0  0  0  0  0  0  0  0  0  0  0
   -5.1981    0.7504    0.0000 C   0  0  2  0  0  0  0  0  0  0  0  0
   -3.8989    1.5002    0.0000 O   0  0  0  0  0  0  0  0  0  0  0  0
   -2.6000    0.7500    0.0000 C   0  0  0  0  0  0  0  0  0  0  0  0
   -2.6000   -0.7500    0.0000 C   0  0  0  0  0  0  0  0  0  0  0  0
   -1.3000   -1.5000    0.0000 C   0  0  0  0  0  0  0  0  0  0  0  0
    0.0000   -0.7500    0.0000 C   0  0  0  0  0  0  0  0  0  0  0  0
    1.3000   -1.5000    0.0000 C   0  0  0  0  0  0  0  0  0  0  0  0
    2.6000   -0.7500    0.0000 C   0  0  0  0  0  0  0  0  0  0  0  0
    3.8989   -1.5002    0.0000 N   0  0  0  0  0  0  0  0  0  0  0  0
    5.1981   -0.7504    0.0000 C   0  0  0  0  0  0  0  0  0  0  0  0
    5.1983    0.7496    0.0000 O   0  0  0  0  0  0  0  0  0  0  0  0
    6.4970   -1.5006    0.0000 C   0  0  0  0  0  0  0  0  0  0  0  0
    7.7970   -0.7506    0.0000 C   0  0  0  0  0  0  0  0  0  0  0  0
    9.0970   -1.5006    0.0000 C   0  0  0  0  0  0  0  0  0  0  0  0
    9.0970   -3.0006    0.0000 C   0  0  0  0  0  0  0  0  0  0  0  0
   10.3959   -3.7508    0.0000 O   0  0  0  0  0  0  0  0  0  0  0  0
    7.7970   -3.7506    0.0000 C   0  0  0  0  0  0  0  0  0  0  0  0
    7.7970   -5.2506    0.0000 C   0  0  0  0  0  0  0  0  0  0  0  0
    6.4980   -6.0006    0.0000 C   0  0  0  0  0  0  0  0  0  0  0  0
    5.1989   -5.2506    0.0000 C   0  0  0  0  0  0  0  0  0  0  0  0
    3.8999   -6.0006    0.0000 C   0  0  0  0  0  0  0  0  0  0  0  0
    5.1989   -3.7506    0.0000 C   0  0  0  0  0  0  0  0  0  0  0  0
    6.4970   -3.0006    0.0000 C   0  0  0  0  0  0  0  0  0  0  0  0
    2.6000    0.7500    0.0000 C   0  0  0  0  0  0  0  0  0  0  0  0
    3.8989    1.5002    0.0000 O   0  0  0  0  0  0  0  0  0  0  0  0
    1.3000    1.5000    0.0000 O   0  0  0  0  0  0  0  0  0  0  0  0
    0.0000    0.7500    0.0000 C   0  0  0  0  0  0  0  0  0  0  0  0
   -1.3000    1.5000    0.0000 C   0  0  0  0  0  0  0  0  0  0  0  0
   -1.3000    3.0000    0.0000 C   0  0  0  0  0  0  0  0  0  0  0  0
    1.3000   -3.0000    0.0000 O   0  0  0  0  0  0  0  0  0  0  0  0
   -5.1986   -0.7504    0.0000 O   0  0  0  0  0  0  0  0  0  0  0  0
   -6.4981   -1.5012    0.0000 C   0  0  0  0  0  0  0  0  0  0  0  0
   -7.4621   -2.6504    0.0000 C   0  0  0  0  0  0  0  0  0  0  0  0
   -5.5336   -2.6501    0.0000 C   0  0  0  0  0  0  0  0  0  0  0  0
  1  2  1  0  0  0  0 
  3  2  1  6  0  0  0 
  3  4  1  0  0  0  0 
  4  5  1  1  0  0  0 
  5  6  1  0  0  0  0 
  6  7  2  0  0  0  0 
  6  8  1  0  0  0  0 
  4  9  1  0  0  0  0 
  9 10  1  1  0  0  0 
  9 11  1  0  0  0  0 
 11 12  1  6  0  0  0 
 12 13  1  0  0  0  0 
 13 14  2  0  0  0  0 
 14 15  1  0  0  0  0 
 15 16  2  0  0  0  0 
 16 17  1  0  0  0  0 
 17 18  2  0  0  0  0 
 18 19  1  0  0  0  0 
 19 20  1  0  0  0  0 
 20 21  2  0  0  0  0 
 20 22  1  0  0  0  0 
 22 23  2  0  0  0  0 
 23 24  1  0  0  0  0 
 24 25  2  0  0  0  0 
 25 26  1  0  0  0  0 
 25 27  1  0  0  0  0 
 27 28  1  0  0  0  0 
 28 29  1  0  0  0  0 
 29 30  2  0  0  0  0 
 30 31  1  0  0  0  0 
 30 32  1  0  0  0  0 
 27 33  2  0  0  0  0 
 22 33  1  0  0  0  0 
 18 34  1  0  0  0  0 
 34 35  2  0  0  0  0 
 34 36  1  0  0  0  0 
 36 37  1  0  0  0  0 
 16 37  1  0  0  0  0 
 37 38  2  0  0  0  0 
 13 38  1  0  0  0  0 
 38 39  1  0  0  0  0 
 17 40  1  0  0  0  0 
 11 41  1  0  0  0  0 
 41 42  1  0  0  0  0 
  3 42  1  0  0  0  0 
 42 43  1  0  0  0  0 
 42 44  1  0  0  0  0 
M  END
> <SMILES>
CO[C@@H]1[C@@H](OC(=O)N)[C@@H](O)[C@H](Oc2ccc3C(=C(NC(=O)c4ccc(O)c(CC=C(C)C)c4)C(=O)Oc3c2C)O)OC1(C)C

$$$$

  CDK     01261921162D

 77 80  0  0  1  0  0  0  0  0999 V2000
  -13.6551   19.9046    0.0000 C   0  0  0  0  0  0  0  0  0  0  0  0
  -12.2748   19.3175    0.0000 C   0  0  0  0  0  0  0  0  0  0  0  0
  -12.0931   17.8285    0.0000 C   0  0  0  0  0  0  0  0  0  0  0  0
  -13.2918   16.9267    0.0000 C   0  0  0  0  0  0  0  0  0  0  0  0
  -10.7128   17.2414    0.0000 C   0  0  0  0  0  0  0  0  0  0  0  0
  -10.5311   15.7524    0.0000 C   0  0  0  0  0  0  0  0  0  0  0  0
  -11.7298   14.8506    0.0000 C   0  0  0  0  0  0  0  0  0  0  0  0
   -9.1508   15.1652    0.0000 C   0  0  0  0  0  0  0  0  0  0  0  0
   -8.9692   13.6763    0.0000 C   0  0  0  0  0  0  0  0  0  0  0  0
   -7.5889   13.0891    0.0000 C   0  0  0  0  0  0  0  0  0  0  0  0
   -7.4072   11.6002    0.0000 C   0  0  0  0  0  0  0  0  0  0  0  0
   -6.0269   11.0130    0.0000 C   0  0  0  0  0  0  0  0  0  0  0  0
   -5.8453    9.5240    0.0000 C   0  0  0  0  0  0  0  0  0  0  0  0
   -4.4650    8.9369    0.0000 C   0  0  0  0  0  0  0  0  0  0  0  0
   -4.2833    7.4479    0.0000 C   0  0  0  0  0  0  0  0  0  0  0  0
   -2.9030    6.8608    0.0000 C   0  0  0  0  0  0  0  0  0  0  0  0
   -1.7044    7.7626    0.0000 O   0  0  0  0  0  0  0  0  0  0  0  0
   -2.7214    5.3718    0.0000 N   0  0  0  0  0  0  0  0  0  0  0  0
   -3.9200    4.4700    0.0000 C   0  0  1  0  0  0  0  0  0  0  0  0
   -5.4200    4.4700    0.0000 C   0  0  0  0  0  0  0  0  0  0  0  0
   -6.1700    3.1700    0.0000 C   0  0  1  0  0  0  0  0  0  0  0  0
   -7.6182    2.7794    0.0000 O   0  0  0  0  0  0  0  0  0  0  0  0
   -3.9200    1.8800    0.0000 C   0  0  1  0  0  0  0  0  0  0  0  0
   -4.9792    0.8179    0.0000 N   0  0  0  0  0  0  0  0  0  0  0  0
   -6.4286    1.2042    0.0000 C   0  0  0  0  0  0  0  0  0  0  0  0
   -7.4879    0.1421    0.0000 C   0  0  0  0  0  0  0  0  0  0  0  0
   -8.9373    0.5284    0.0000 N   0  0  0  0  0  0  0  0  0  0  0  0
   -3.1700    0.5800    0.0000 N   0  0  0  0  0  0  0  0  0  0  0  0
   -3.9200   -0.7200    0.0000 C   0  0  0  0  0  0  0  0  0  0  0  0
   -5.4200   -0.7200    0.0000 O   0  0  0  0  0  0  0  0  0  0  0  0
   -3.1700   -2.0200    0.0000 C   0  0  2  0  0  0  0  0  0  0  0  0
   -3.6335   -3.4466    0.0000 C   0  0  1  0  0  0  0  0  0  0  0  0
   -5.0601   -3.9101    0.0000 O   0  0  0  0  0  0  0  0  0  0  0  0
   -2.4200   -4.3283    0.0000 C   0  0  0  0  0  0  0  0  0  0  0  0
   -1.2065   -3.4466    0.0000 C   0  0  0  0  0  0  0  0  0  0  0  0
   -1.6700   -2.0200    0.0000 N   0  0  0  0  0  0  0  0  0  0  0  0
   -0.9200   -0.7200    0.0000 C   0  0  0  0  0  0  0  0  0  0  0  0
   -1.6702    0.5789    0.0000 O   0  0  0  0  0  0  0  0  0  0  0  0
    0.5800   -0.7200    0.0000 C   0  0  1  0  0  0  0  0  0  0  0  0
    1.3300    0.5800    0.0000 N   0  0  0  0  0  0  0  0  0  0  0  0
    2.8300    0.5800    0.0000 C   0  0  0  0  0  0  0  0  0  0  0  0
    3.5780   -0.7202    0.0000 O   0  0  0  0  0  0  0  0  0  0  0  0
    3.5800    1.8700    0.0000 C   0  0  1  0  0  0  0  0  0  0  0  0
    2.8300    3.1700    0.0000 N   0  0  0  0  0  0  0  0  0  0  0  0
    3.5800    4.4700    0.0000 C   0  0  0  0  0  0  0  0  0  0  0  0
    5.0800    4.4700    0.0000 O   0  0  0  0  0  0  0  0  0  0  0  0
    2.8300    5.7700    0.0000 C   0  0  2  0  0  0  0  0  0  0  0  0
    3.2935    7.1966    0.0000 C   0  0  0  0  0  0  0  0  0  0  0  0
    2.0800    8.0783    0.0000 C   0  0  1  0  0  0  0  0  0  0  0  0
    2.0800    9.5783    0.0000 O   0  0  0  0  0  0  0  0  0  0  0  0
    0.8665    7.1966    0.0000 C   0  0  0  0  0  0  0  0  0  0  0  0
    1.3300    5.7700    0.0000 N   0  0  0  0  0  0  0  0  0  0  0  0
    0.5800    4.4700    0.0000 C   0  0  0  0  0  0  0  0  0  0  0  0
    1.3302    3.1711    0.0000 O   0  0  0  0  0  0  0  0  0  0  0  0
   -0.9200    4.4700    0.0000 C   0  0  1  0  0  0  0  0  0  0  0  0
   -1.6700    3.1700    0.0000 N   0  0  0  0  0  0  0  0  0  0  0  0
   -3.1700    3.1700    0.0000 C   0  0  0  0  0  0  0  0  0  0  0  0
   -2.4198    4.4689    0.0000 O   0  0  0  0  0  0  0  0  0  0  0  0
   -1.6702    5.7689    0.0000 C   0  0  1  0  0  0  0  0  0  0  0  0
   -0.9204    7.0681    0.0000 C   0  0  0  0  0  0  0  0  0  0  0  0
   -3.1702    5.7687    0.0000 O   0  0  0  0  0  0  0  0  0  0  0  0
    5.0800    1.8675    0.0000 C   0  0  2  0  0  0  0  0  0  0  0  0
    5.8322    3.1653    0.0000 O   0  0  0  0  0  0  0  0  0  0  0  0
    5.8278    0.5672    0.0000 C   0  0  1  0  0  0  0  0  0  0  0  0
    5.0756   -0.7306    0.0000 O   0  0  0  0  0  0  0  0  0  0  0  0
    7.3278    0.5647    0.0000 C   0  0  0  0  0  0  0  0  0  0  0  0
    8.0736    1.8662    0.0000 C   0  0  0  0  0  0  0  0  0  0  0  0
    9.5484    1.8855    0.0000 C   0  0  0  0  0  0  0  0  0  0  0  0
   10.3468    0.5635    0.0000 C   0  0  0  0  0  0  0  0  0  0  0  0
   11.8467    0.5808    0.0000 O   0  0  0  0  0  0  0  0  0  0  0  0
    9.6010   -0.7379    0.0000 C   0  0  0  0  0  0  0  0  0  0  0  0
    8.0568   -0.7175    0.0000 C   0  0  0  0  0  0  0  0  0  0  0  0
    1.3302   -2.0189    0.0000 C   0  0  2  0  0  0  0  0  0  0  0  0
    2.8302   -2.0187    0.0000 O   0  0  0  0  0  0  0  0  0  0  0  0
    0.5804   -3.3181    0.0000 C   0  0  0  0  0  0  0  0  0  0  0  0
    1.3306   -4.6170    0.0000 C   0  0  0  0  0  0  0  0  0  0  0  0
    0.5808   -5.9162    0.0000 N   0  0  0  0  0  0  0  0  0  0  0  0
  1  2  1  0  0  0  0 
  2  3  1  0  0  0  0 
  3  4  1  0  0  0  0 
  3  5  1  0  0  0  0 
  5  6  1  0  0  0  0 
  6  7  1  0  0  0  0 
  6  8  1  0  0  0  0 
  8  9  1  0  0  0  0 
  9 10  1  0  0  0  0 
 10 11  1  0  0  0  0 
 11 12  1  0  0  0  0 
 12 13  1  0  0  0  0 
 13 14  1  0  0  0  0 
 14 15  1  0  0  0  0 
 15 16  1  0  0  0  0 
 16 17  2  0  0  0  0 
 16 18  1  0  0  0  0 
 19 18  1  6  0  0  0 
 19 20  1  0  0  0  0 
 20 21  1  0  0  0  0 
 21 22  1  6  0  0  0 
 21 23  1  0  0  0  0 
 23 24  1  1  0  0  0 
 24 25  1  0  0  0  0 
 25 26  1  0  0  0  0 
 26 27  1  0  0  0  0 
 23 28  1  0  0  0  0 
 28 29  1  0  0  0  0 
 29 30  2  0  0  0  0 
 29 31  1  0  0  0  0 
 31 32  1  0  0  0  0 
 32 33  1  6  0  0  0 
 32 34  1  0  0  0  0 
 34 35  1  0  0  0  0 
 35 36  1  0  0  0  0 
 31 36  1  1  0  0  0 
 36 37  1  0  0  0  0 
 37 38  2  0  0  0  0 
 37 39  1  0  0  0  0 
 39 40  1  1  0  0  0 
 40 41  1  0  0  0  0 
 41 42  2  0  0  0  0 
 41 43  1  0  0  0  0 
 43 44  1  1  0  0  0 
 44 45  1  0  0  0  0 
 45 46  2  0  0  0  0 
 45 47  1  0  0  0  0 
 47 48  1  0  0  0  0 
 48 49  1  0  0  0  0 
 49 50  1  6  0  0  0 
 49 51  1  0  0  0  0 
 51 52  1  0  0  0  0 
 47 52  1  1  0  0  0 
 52 53  1  0  0  0  0 
 53 54  2  0  0  0  0 
 53 55  1  0  0  0  0 
 55 56  1  1  0  0  0 
 56 57  1  0  0  0  0 
 19 57  1  0  0  0  0 
 57 58  2  0  0  0  0 
 55 59  1  0  0  0  0 
 59 60  1  0  0  0  0 
 59 61  1  6  0  0  0 
 43 62  1  0  0  0  0 
 62 63  1  6  0  0  0 
 62 64  1  0  0  0  0 
 64 65  1  6  0  0  0 
 64 66  1  0  0  0  0 
 66 67  2  0  0  0  0 
 67 68  1  0  0  0  0 
 68 69  2  0  0  0  0 
 69 70  1  0  0  0  0 
 69 71  1  0  0  0  0 
 71 72  2  0  0  0  0 
 66 72  1  0  0  0  0 
 39 73  1  0  0  0  0 
 73 74  1  6  0  0  0 
 73 75  1  0  0  0  0 
 75 76  1  0  0  0  0 
 76 77  1  0  0  0  0 
M  END
> <SMILES>
CCC(C)CC(C)CCCCCCCCC(=O)N[C@H]1C[C@@H](O)[C@@H](NCCN)NC(=O)[C@@H]2[C@@H](O)CCN2C(=O)[C@@H](NC(=O)[C@@H](NC(=O)[C@@H]3C[C@@H](O)CN3C(=O)[C@@H](NC1=O)[C@@H](C)O)[C@H](O)[C@@H](O)c4ccc(O)cc4)[C@H](O)CCN

$$$$

  CDK     01261921162D

 28 29  0  0  0  0  0  0  0  0999 V2000
   -3.4006   -7.3913    0.0000 O   0  0  0  0  0  0  0  0  0  0  0  0
   -4.6995   -6.6411    0.0000 S   0  0  0  0  0  0  0  0  0  0  0  0
   -6.1767   -6.3804    0.0000 O   0  0  0  0  0  0  0  0  0  0  0  0
   -5.2128   -8.0506    0.0000 O   0  0  0  0  0  0  0  0  0  0  0  0
   -4.6993   -5.1411    0.0000 C   0  0  0  0  0  0  0  0  0  0  0  0
   -5.9988   -4.3903    0.0000 C   0  0  0  0  0  0  0  0  0  0  0  0
   -5.9993   -2.8894    0.0000 C   0  0  0  0  0  0  0  0  0  0  0  0
   -7.2985   -2.1396    0.0000 N   0  0  0  0  0  0  0  0  0  0  0  0
   -7.2987   -0.6396    0.0000 C   0  0  0  0  0  0  0  0  0  0  0  0
   -8.5979    0.1101    0.0000 S   0  0  0  0  0  0  0  0  0  0  0  0
   -4.7003   -2.1394    0.0000 C   0  0  0  0  0  0  0  0  0  0  0  0
   -3.4007   -2.8903    0.0000 C   0  0  0  0  0  0  0  0  0  0  0  0
   -3.4003   -4.3911    0.0000 C   0  0  0  0  0  0  0  0  0  0  0  0
   -2.1011   -5.1409    0.0000 C   0  0  0  0  0  0  0  0  0  0  0  0
   -0.8022   -4.3907    0.0000 C   0  0  0  0  0  0  0  0  0  0  0  0
    0.4970   -5.1405    0.0000 C   0  0  0  0  0  0  0  0  0  0  0  0
    1.7967   -4.3901    0.0000 C   0  0  0  0  0  0  0  0  0  0  0  0
    3.0970   -5.1396    0.0000 C   0  0  0  0  0  0  0  0  0  0  0  0
    3.0974   -6.6396    0.0000 C   0  0  0  0  0  0  0  0  0  0  0  0
    1.7977   -7.3901    0.0000 C   0  0  0  0  0  0  0  0  0  0  0  0
    0.4974   -6.6405    0.0000 C   0  0  0  0  0  0  0  0  0  0  0  0
   -0.8012   -7.3911    0.0000 S   0  0  0  0  0  0  0  0  0  0  0  0
   -1.3149   -5.9818    0.0000 O   0  0  0  0  0  0  0  0  0  0  0  0
   -2.2783   -7.6523    0.0000 O   0  0  0  0  0  0  0  0  0  0  0  0
   -0.8005   -8.8911    0.0000 O   0  0  0  0  0  0  0  0  0  0  0  0
    4.3966   -7.3894    0.0000 N   0  0  0  0  0  0  0  0  0  0  0  0
    5.6955   -6.6392    0.0000 C   0  0  0  0  0  0  0  0  0  0  0  0
    6.9944   -5.8890    0.0000 S   0  0  0  0  0  0  0  0  0  0  0  0
  1  2  1  0  0  0  0 
  2  3  2  0  0  0  0 
  2  4  2  0  0  0  0 
  2  5  1  0  0  0  0 
  5  6  2  0  0  0  0 
  6  7  1  0  0  0  0 
  7  8  1  0  0  0  0 
  8  9  1  0  0  0  0 
  9 10  2  0  0  0  0 
  7 11  2  0  0  0  0 
 11 12  1  0  0  0  0 
 12 13  2  0  0  0  0 
  5 13  1  0  0  0  0 
 13 14  1  4  0  0  0 
 14 15  2  0  0  0  0 
 15 16  1  0  0  0  0 
 16 17  2  0  0  0  0 
 17 18  1  0  0  0  0 
 18 19  2  0  0  0  0 
 19 20  1  0  0  0  0 
 20 21  2  0  0  0  0 
 16 21  1  0  0  0  0 
 21 22  1  0  0  0  0 
 22 23  2  0  0  0  0 
 22 24  2  0  0  0  0 
 22 25  1  0  0  0  0 
 19 26  1  0  0  0  0 
 26 27  2  0  0  0  0 
 27 28  2  0  0  0  0 
M  END
> <SMILES>
OS(=O)(=O)c1cc(NC=S)ccc1C=Cc2ccc(cc2S(=O)(=O)O)N=C=S

$$$$

  CDK     01261921162D

 10 10  0  0  0  0  0  0  0  0999 V2000
   -0.6506   -1.5002    0.0000 O   0  0  0  0  0  0  0  0  0  0  0  0
   -0.6508   -0.0002    0.0000 C   0  0  0  0  0  0  0  0  0  0  0  0
   -1.9500    0.7496    0.0000 O   0  0  0  0  0  0  0  0  0  0  0  0
    0.6481    0.7500    0.0000 C   0  0  0  0  0  0  0  0  0  0  0  0
    1.9481   -0.0000    0.0000 C   0  0  0  0  0  0  0  0  0  0  0  0
    3.2481    0.7500    0.0000 C   0  0  0  0  0  0  0  0  0  0  0  0
    3.2481    2.2500    0.0000 C   0  0  0  0  0  0  0  0  0  0  0  0
    1.9481    3.0000    0.0000 C   0  0  0  0  0  0  0  0  0  0  0  0
    0.6481    2.2500    0.0000 C   0  0  0  0  0  0  0  0  0  0  0  0
   -0.6508    3.0002    0.0000 O   0  0  0  0  0  0  0  0  0  0  0  0
  1  2  1  0  0  0  0 
  2  3  2  0  0  0  0 
  2  4  1  0  0  0  0 
  4  5  2  0  0  0  0 
  5  6  1  0  0  0  0 
  6  7  2  0  0  0  0 
  7  8  1  0  0  0  0 
  8  9  2  0  0  0  0 
  4  9  1  0  0  0  0 
  9 10  1  0  0  0  0 
M  END
> <SMILES>
OC(=O)c1ccccc1O

$$$$

  CDK     01261921162D

 33 36  0  0  1  0  0  0  0  0999 V2000
   -5.1990   -3.7500    0.0000 C   0  0  0  0  0  0  0  0  0  0  0  0
   -3.9000   -3.0000    0.0000 N   0  0  0  0  0  0  0  0  0  0  0  0
   -2.6010   -3.7500    0.0000 C   0  0  0  0  0  0  0  0  0  0  0  0
   -3.9000   -1.5000    0.0000 C   0  0  1  0  0  0  0  0  0  0  0  0
   -2.6000   -0.7500    0.0000 C   0  0  2  0  0  0  0  0  0  0  0  0
   -1.3000   -1.5000    0.0000 C   0  0  1  0  0  0  0  0  0  0  0  0
   -1.3000   -3.0000    0.0000 O   0  0  0  0  0  0  0  0  0  0  0  0
    0.0000   -0.7500    0.0000 C   0  0  1  0  0  0  0  0  0  0  0  0
    0.0000    0.7500    0.0000 C   0  0  0  0  0  0  0  0  0  0  0  0
   -1.3000    1.5000    0.0000 C   0  0  0  0  0  0  0  0  0  0  0  0
   -1.3000    3.0000    0.0000 O   0  0  0  0  0  0  0  0  0  0  0  0
   -2.6000    0.7500    0.0000 C   0  0  1  0  0  0  0  0  0  0  0  0
   -2.6000    2.2500    0.0000 O   0  0  0  0  0  0  0  0  0  0  0  0
   -3.9000    1.5000    0.0000 C   0  0  0  0  0  0  0  0  0  0  0  0
   -3.9000    3.0000    0.0000 O   0  0  0  0  0  0  0  0  0  0  0  0
   -5.2000    0.7500    0.0000 C   0  0  0  0  0  0  0  0  0  0  0  0
   -5.2000   -0.7500    0.0000 C   0  0  0  0  0  0  0  0  0  0  0  0
   -6.4989   -1.5002    0.0000 O   0  0  0  0  0  0  0  0  0  0  0  0
   -6.4989    1.5002    0.0000 C   0  0  0  0  0  0  0  0  0  0  0  0
   -6.4987    3.0002    0.0000 O   0  0  0  0  0  0  0  0  0  0  0  0
   -7.7981    0.7504    0.0000 N   0  0  0  0  0  0  0  0  0  0  0  0
    1.3000    1.5000    0.0000 C   0  0  0  0  0  0  0  0  0  0  0  0
    1.3000    3.0000    0.0000 O   0  0  0  0  0  0  0  0  0  0  0  0
    2.6000    0.7500    0.0000 C   0  0  0  0  0  0  0  0  0  0  0  0
    3.9000    1.5000    0.0000 C   0  0  0  0  0  0  0  0  0  0  0  0
    3.9000    3.0000    0.0000 O   0  0  0  0  0  0  0  0  0  0  0  0
    5.2000    0.7500    0.0000 C   0  0  0  0  0  0  0  0  0  0  0  0
    5.2000   -0.7500    0.0000 C   0  0  0  0  0  0  0  0  0  0  0  0
    3.9000   -1.5000    0.0000 C   0  0  0  0  0  0  0  0  0  0  0  0
    2.6000   -0.7500    0.0000 C   0  0  0  0  0  0  0  0  0  0  0  0
    1.3000   -1.5000    0.0000 C   0  0  2  0  0  0  0  0  0  0  0  0
    0.3359   -2.6492    0.0000 C   0  0  0  0  0  0  0  0  0  0  0  0
    2.2641   -2.6492    0.0000 O   0  0  0  0  0  0  0  0  0  0  0  0
  1  2  1  0  0  0  0 
  2  3  1  0  0  0  0 
  4  2  1  6  0  0  0 
  5  4  1  1  0  0  0 
  5  6  1  0  0  0  0 
  6  7  1  6  0  0  0 
  6  8  1  0  0  0  0 
  8  9  1  1  0  0  0 
  9 10  2  0  0  0  0 
 10 11  1  0  0  0  0 
 10 12  1  0  0  0  0 
  5 12  1  0  0  0  0 
 12 13  1  6  0  0  0 
 12 14  1  0  0  0  0 
 14 15  2  0  0  0  0 
 14 16  1  0  0  0  0 
 16 17  2  0  0  0  0 
  4 17  1  0  0  0  0 
 17 18  1  0  0  0  0 
 16 19  1  0  0  0  0 
 19 20  2  0  0  0  0 
 19 21  1  0  0  0  0 
  9 22  1  0  0  0  0 
 22 23  2  0  0  0  0 
 22 24  1  0  0  0  0 
 24 25  2  0  0  0  0 
 25 26  1  0  0  0  0 
 25 27  1  0  0  0  0 
 27 28  2  0  0  0  0 
 28 29  1  0  0  0  0 
 29 30  2  0  0  0  0 
 24 30  1  0  0  0  0 
 30 31  1  0  0  0  0 
  8 31  1  0  0  0  0 
 31 32  1  6  0  0  0 
 31 33  1  1  0  0  0 
M  END
> <SMILES>
CN(C)[C@H]1[C@@H]2[C@@H](O)[C@H]3C(=C(O)[C@]2(O)C(=O)C(=C1O)C(=O)N)C(=O)c4c(O)cccc4[C@@]3(C)O

$$$$

  CDK     01261921162D

 44 48  0  0  1  0  0  0  0  0999 V2000
  -14.7360    3.0833    0.0000 C   0  0  0  0  0  0  0  0  0  0  0  0
  -13.6753    2.0226    0.0000 C   0  0  0  0  0  0  0  0  0  0  0  0
  -12.2264    2.4108    0.0000 N   0  0  0  0  0  0  0  0  0  0  0  0
  -11.8384    3.8607    0.0000 C   0  0  0  0  0  0  0  0  0  0  0  0
  -10.3896    4.2489    0.0000 C   0  0  0  0  0  0  0  0  0  0  0  0
   -9.3286    3.1873    0.0000 N   0  0  0  0  0  0  0  0  0  0  0  0
   -7.8798    3.5755    0.0000 C   0  0  0  0  0  0  0  0  0  0  0  0
   -7.4915    5.0244    0.0000 O   0  0  0  0  0  0  0  0  0  0  0  0
   -6.8191    2.5149    0.0000 N   0  0  0  0  0  0  0  0  0  0  0  0
   -5.3702    2.9031    0.0000 C   0  0  1  0  0  0  0  0  0  0  0  0
   -4.3095    1.8424    0.0000 C   0  0  0  0  0  0  0  0  0  0  0  0
   -4.6978    0.3935    0.0000 O   0  0  0  0  0  0  0  0  0  0  0  0
   -2.8607    2.2307    0.0000 N   0  0  0  0  0  0  0  0  0  0  0  0
   -1.8000    1.1700    0.0000 C   0  0  1  0  0  0  0  0  0  0  0  0
   -0.3000    1.1700    0.0000 C   0  0  1  0  0  0  0  0  0  0  0  0
    0.9900    1.9200    0.0000 S   0  0  0  0  0  0  0  0  0  0  0  0
    2.3100    1.1700    0.0000 C   0  0  0  0  0  0  0  0  0  0  0  0
    2.3100   -0.3500    0.0000 C   0  0  0  0  0  0  0  0  0  0  0  0
    0.9900   -1.1100    0.0000 C   0  0  0  0  0  0  0  0  0  0  0  0
   -0.3000   -0.3300    0.0000 N   0  0  0  0  0  0  0  0  0  0  0  0
   -1.8000   -0.3300    0.0000 C   0  0  0  0  0  0  0  0  0  0  0  0
   -2.8607   -1.3907    0.0000 O   0  0  0  0  0  0  0  0  0  0  0  0
    0.9739   -2.6099    0.0000 C   0  0  0  0  0  0  0  0  0  0  0  0
   -0.3331   -3.3460    0.0000 O   0  0  0  0  0  0  0  0  0  0  0  0
    2.2649   -3.3738    0.0000 O   0  0  0  0  0  0  0  0  0  0  0  0
    3.6086   -1.1008    0.0000 C   0  0  0  0  0  0  0  0  0  0  0  0
    4.9081   -0.3516    0.0000 S   0  0  0  0  0  0  0  0  0  0  0  0
    6.2067   -1.1023    0.0000 C   0  0  0  0  0  0  0  0  0  0  0  0
    7.5772   -0.4876    0.0000 N   0  0  0  0  0  0  0  0  0  0  0  0
    8.5722   -1.6128    0.0000 N   0  0  0  0  0  0  0  0  0  0  0  0
    7.8230   -2.9038    0.0000 N   0  0  0  0  0  0  0  0  0  0  0  0
    6.3568   -2.5874    0.0000 N   0  0  0  0  0  0  0  0  0  0  0  0
    5.2385   -3.5872    0.0000 C   0  0  0  0  0  0  0  0  0  0  0  0
   -4.9820    4.3520    0.0000 C   0  0  0  0  0  0  0  0  0  0  0  0
   -6.0478    5.4074    0.0000 C   0  0  0  0  0  0  0  0  0  0  0  0
   -5.6872    6.8376    0.0000 C   0  0  0  0  0  0  0  0  0  0  0  0
   -4.2044    7.2691    0.0000 C   0  0  0  0  0  0  0  0  0  0  0  0
   -3.8353    8.7230    0.0000 O   0  0  0  0  0  0  0  0  0  0  0  0
   -3.1385    6.2137    0.0000 C   0  0  0  0  0  0  0  0  0  0  0  0
   -3.5555    4.7267    0.0000 C   0  0  0  0  0  0  0  0  0  0  0  0
   -9.7166    1.7375    0.0000 C   0  0  0  0  0  0  0  0  0  0  0  0
   -8.6558    0.6770    0.0000 O   0  0  0  0  0  0  0  0  0  0  0  0
  -11.1655    1.3492    0.0000 C   0  0  0  0  0  0  0  0  0  0  0  0
  -11.5540   -0.0996    0.0000 O   0  0  0  0  0  0  0  0  0  0  0  0
  1  2  1  0  0  0  0 
  2  3  1  0  0  0  0 
  3  4  1  0  0  0  0 
  4  5  1  0  0  0  0 
  5  6  1  0  0  0  0 
  6  7  1  0  0  0  0 
  7  8  2  0  0  0  0 
  7  9  1  0  0  0  0 
 10  9  1  6  0  0  0 
 10 11  1  0  0  0  0 
 11 12  2  0  0  0  0 
 11 13  1  0  0  0  0 
 14 13  1  1  0  0  0 
 14 15  1  0  0  0  0 
 15 16  1  0  0  0  0 
 16 17  1  0  0  0  0 
 17 18  1  0  0  0  0 
 18 19  2  0  0  0  0 
 19 20  1  0  0  0  0 
 15 20  1  1  0  0  0 
 20 21  1  0  0  0  0 
 14 21  1  0  0  0  0 
 21 22  2  0  0  0  0 
 19 23  1  0  0  0  0 
 23 24  2  0  0  0  0 
 23 25  1  0  0  0  0 
 18 26  1  0  0  0  0 
 26 27  1  0  0  0  0 
 27 28  1  0  0  0  0 
 28 29  2  0  0  0  0 
 29 30  1  0  0  0  0 
 30 31  2  0  0  0  0 
 31 32  1  0  0  0  0 
 28 32  1  0  0  0  0 
 32 33  1  0  0  0  0 
 10 34  1  0  0  0  0 
 34 35  2  0  0  0  0 
 35 36  1  0  0  0  0 
 36 37  2  0  0  0  0 
 37 38  1  0  0  0  0 
 37 39  1  0  0  0  0 
 39 40  2  0  0  0  0 
 34 40  1  0  0  0  0 
  6 41  1  0  0  0  0 
 41 42  2  0  0  0  0 
 41 43  1  0  0  0  0 
  3 43  1  0  0  0  0 
 43 44  2  0  0  0  0 
M  END
> <SMILES>
CCN1CCN(C(=O)N[C@@H](C(=O)N[C@H]2[C@H]3SCC(=C(N3C2=O)C(=O)O)CSc4nnnn4C)c5ccc(O)cc5)C(=O)C1=O

$$$$

  CDK     01261921162D

 21 23  0  0  0  0  0  0  0  0999 V2000
   -4.6396   -2.9673    0.0000 C   0  0  0  0  0  0  0  0  0  0  0  0
   -3.1690   -2.6715    0.0000 C   0  0  0  0  0  0  0  0  0  0  0  0
   -2.6900   -1.2500    0.0000 C   0  0  0  0  0  0  0  0  0  0  0  0
   -3.7100   -0.1600    0.0000 C   0  0  0  0  0  0  0  0  0  0  0  0
   -3.2400    1.2700    0.0000 C   0  0  0  0  0  0  0  0  0  0  0  0
   -1.7700    1.6000    0.0000 C   0  0  0  0  0  0  0  0  0  0  0  0
   -0.7500    0.4600    0.0000 C   0  0  0  0  0  0  0  0  0  0  0  0
    0.7500    0.4600    0.0000 C   0  0  0  0  0  0  0  0  0  0  0  0
    1.7800    1.6000    0.0000 C   0  0  0  0  0  0  0  0  0  0  0  0
    3.2400    1.2700    0.0000 C   0  0  0  0  0  0  0  0  0  0  0  0
    3.6800   -0.1600    0.0000 O   0  0  0  0  0  0  0  0  0  0  0  0
    2.6900   -1.2500    0.0000 C   0  0  0  0  0  0  0  0  0  0  0  0
    2.1632   -2.6545    0.0000 C   0  0  0  0  0  0  0  0  0  0  0  0
    3.1161   -3.8129    0.0000 C   0  0  0  0  0  0  0  0  0  0  0  0
    3.9703   -2.0316    0.0000 C   0  0  0  0  0  0  0  0  0  0  0  0
    5.2873   -1.3137    0.0000 C   0  0  0  0  0  0  0  0  0  0  0  0
    5.3240    0.1859    0.0000 O   0  0  0  0  0  0  0  0  0  0  0  0
    6.5676   -2.0953    0.0000 O   0  0  0  0  0  0  0  0  0  0  0  0
    1.2300   -1.0000    0.0000 C   0  0  0  0  0  0  0  0  0  0  0  0
    0.0200   -1.8400    0.0000 N   0  0  0  0  0  0  0  0  0  0  0  0
   -1.2200   -1.0000    0.0000 C   0  0  0  0  0  0  0  0  0  0  0  0
  1  2  1  0  0  0  0 
  2  3  1  0  0  0  0 
  3  4  1  0  0  0  0 
  4  5  2  0  0  0  0 
  5  6  1  0  0  0  0 
  6  7  2  0  0  0  0 
  7  8  1  0  0  0  0 
  8  9  1  0  0  0  0 
  9 10  1  0  0  0  0 
 10 11  1  0  0  0  0 
 11 12  1  0  0  0  0 
 12 13  1  0  0  0  0 
 13 14  1  0  0  0  0 
 12 15  1  0  0  0  0 
 15 16  1  0  0  0  0 
 16 17  2  0  0  0  0 
 16 18  1  0  0  0  0 
 12 19  1  0  0  0  0 
  8 19  2  0  0  0  0 
 19 20  1  0  0  0  0 
 20 21  1  0  0  0  0 
  3 21  2  0  0  0  0 
  7 21  1  0  0  0  0 
M  END
> <SMILES>
CCc1cccc2c3CCOC(CC)(CC(=O)O)c3[nH]c12

$$$$

  CDK     01261921162D

 14 14  0  0  0  0  0  0  0  0999 V2000
   -1.9500   -1.5002    0.0000 O   0  0  0  0  0  0  0  0  0  0  0  0
   -0.6511   -0.7500    0.0000 C   0  0  0  0  0  0  0  0  0  0  0  0
    0.6481   -1.4998    0.0000 O   0  0  0  0  0  0  0  0  0  0  0  0
   -0.6513    0.7500    0.0000 C   0  0  0  0  0  0  0  0  0  0  0  0
    0.6476    1.5002    0.0000 N   0  0  0  0  0  0  0  0  0  0  0  0
    0.6474    3.0002    0.0000 C   0  0  0  0  0  0  0  0  0  0  0  0
   -0.6518    3.7500    0.0000 O   0  0  0  0  0  0  0  0  0  0  0  0
    1.9463    3.7504    0.0000 C   0  0  0  0  0  0  0  0  0  0  0  0
    3.2463    3.0004    0.0000 C   0  0  0  0  0  0  0  0  0  0  0  0
    4.5463    3.7504    0.0000 C   0  0  0  0  0  0  0  0  0  0  0  0
    4.5463    5.2504    0.0000 C   0  0  0  0  0  0  0  0  0  0  0  0
    3.2463    6.0004    0.0000 C   0  0  0  0  0  0  0  0  0  0  0  0
    1.9463    5.2504    0.0000 C   0  0  0  0  0  0  0  0  0  0  0  0
    0.6474    6.0006    0.0000 O   0  0  0  0  0  0  0  0  0  0  0  0
  1  2  1  0  0  0  0 
  2  3  2  0  0  0  0 
  2  4  1  0  0  0  0 
  4  5  1  0  0  0  0 
  5  6  1  0  0  0  0 
  6  7  2  0  0  0  0 
  6  8  1  0  0  0  0 
  8  9  2  0  0  0  0 
  9 10  1  0  0  0  0 
 10 11  2  0  0  0  0 
 11 12  1  0  0  0  0 
 12 13  2  0  0  0  0 
  8 13  1  0  0  0  0 
 13 14  1  0  0  0  0 
M  END
> <SMILES>
OC(=O)CNC(=O)c1ccccc1O

$$$$

  CDK     01261921162D

 13 14  0  0  0  0  0  0  0  0999 V2000
    5.9335    2.4362    0.0000 C   0  0  0  0  0  0  0  0  0  0  0  0
    4.8708    1.3776    0.0000 C   0  0  0  0  0  0  0  0  0  0  0  0
    5.2563   -0.0720    0.0000 O   0  0  0  0  0  0  0  0  0  0  0  0
    3.4227    1.7686    0.0000 O   0  0  0  0  0  0  0  0  0  0  0  0
    2.3600    0.7100    0.0000 C   0  0  0  0  0  0  0  0  0  0  0  0
    2.3600   -0.7900    0.0000 C   0  0  0  0  0  0  0  0  0  0  0  0
    1.0500   -1.5300    0.0000 N   0  0  0  0  0  0  0  0  0  0  0  0
   -0.2400   -0.7800    0.0000 C   0  0  0  0  0  0  0  0  0  0  0  0
   -1.5300   -1.5300    0.0000 C   0  0  0  0  0  0  0  0  0  0  0  0
   -2.8300   -0.7800    0.0000 C   0  0  0  0  0  0  0  0  0  0  0  0
   -2.8300    0.7200    0.0000 C   0  0  0  0  0  0  0  0  0  0  0  0
   -1.5300    1.4700    0.0000 C   0  0  0  0  0  0  0  0  0  0  0  0
   -0.2300    0.7200    0.0000 C   0  0  0  0  0  0  0  0  0  0  0  0
  1  2  1  0  0  0  0 
  2  3  2  0  0  0  0 
  2  4  1  0  0  0  0 
  4  5  1  0  0  0  0 
  5  6  2  0  0  0  0 
  6  7  1  0  0  0  0 
  7  8  1  0  0  0  0 
  8  9  2  0  0  0  0 
  9 10  1  0  0  0  0 
 10 11  2  0  0  0  0 
 11 12  1  0  0  0  0 
 12 13  2  0  0  0  0 
  5 13  1  0  0  0  0 
  8 13  1  0  0  0  0 
M  END
> <SMILES>
CC(=O)Oc1c[nH]c2ccccc12

$$$$

  CDK     01261921162D

 24 26  0  0  1  0  0  0  0  0999 V2000
    3.6086   -1.1008    0.0000 C   0  0  0  0  0  0  0  0  0  0  0  0
    2.3100   -0.3500    0.0000 C   0  0  0  0  0  0  0  0  0  0  0  0
    0.9900   -1.1100    0.0000 C   0  0  0  0  0  0  0  0  0  0  0  0
   -0.3000   -0.3300    0.0000 N   0  0  0  0  0  0  0  0  0  0  0  0
   -0.3000    1.1700    0.0000 C   0  0  2  0  0  0  0  0  0  0  0  0
    0.9900    1.9200    0.0000 S   0  0  0  0  0  0  0  0  0  0  0  0
    2.3100    1.1700    0.0000 C   0  0  0  0  0  0  0  0  0  0  0  0
   -1.8000    1.1700    0.0000 C   0  0  2  0  0  0  0  0  0  0  0  0
   -2.8607    2.2307    0.0000 N   0  0  0  0  0  0  0  0  0  0  0  0
   -4.3095    1.8424    0.0000 C   0  0  0  0  0  0  0  0  0  0  0  0
   -4.6978    0.3935    0.0000 O   0  0  0  0  0  0  0  0  0  0  0  0
   -5.3702    2.9031    0.0000 C   0  0  2  0  0  0  0  0  0  0  0  0
   -6.8191    2.5149    0.0000 N   0  0  0  0  0  0  0  0  0  0  0  0
   -4.9820    4.3520    0.0000 C   0  0  0  0  0  0  0  0  0  0  0  0
   -6.0436    5.4129    0.0000 C   0  0  0  0  0  0  0  0  0  0  0  0
   -5.6553    6.8618    0.0000 C   0  0  0  0  0  0  0  0  0  0  0  0
   -4.2055    7.2498    0.0000 C   0  0  0  0  0  0  0  0  0  0  0  0
   -3.1439    6.1888    0.0000 C   0  0  0  0  0  0  0  0  0  0  0  0
   -3.5322    4.7400    0.0000 C   0  0  0  0  0  0  0  0  0  0  0  0
   -1.8000   -0.3300    0.0000 C   0  0  0  0  0  0  0  0  0  0  0  0
   -2.8607   -1.3907    0.0000 O   0  0  0  0  0  0  0  0  0  0  0  0
    0.9739   -2.6099    0.0000 C   0  0  0  0  0  0  0  0  0  0  0  0
   -0.3331   -3.3460    0.0000 O   0  0  0  0  0  0  0  0  0  0  0  0
    2.2649   -3.3738    0.0000 O   0  0  0  0  0  0  0  0  0  0  0  0
  1  2  1  0  0  0  0 
  2  3  2  0  0  0  0 
  3  4  1  0  0  0  0 
  5  4  1  1  0  0  0 
  5  6  1  0  0  0  0 
  6  7  1  0  0  0  0 
  2  7  1  0  0  0  0 
  5  8  1  0  0  0  0 
  8  9  1  1  0  0  0 
  9 10  1  0  0  0  0 
 10 11  2  0  0  0  0 
 10 12  1  0  0  0  0 
 12 13  1  6  0  0  0 
 12 14  1  0  0  0  0 
 14 15  2  0  0  0  0 
 15 16  1  0  0  0  0 
 16 17  1  0  0  0  0 
 17 18  2  0  0  0  0 
 18 19  1  0  0  0  0 
 14 19  1  0  0  0  0 
  8 20  1  0  0  0  0 
  4 20  1  0  0  0  0 
 20 21  2  0  0  0  0 
  3 22  1  0  0  0  0 
 22 23  2  0  0  0  0 
 22 24  1  0  0  0  0 
M  END
> <SMILES>
CC1=C(N2[C@H](SC1)[C@H](NC(=O)[C@H](N)C3=CCC=CC3)C2=O)C(=O)O

$$$$

  CDK     01261921162D

 16 17  0  0  1  0  0  0  0  0999 V2000
    6.6700    0.0087    0.0000 N   0  0  0  0  0  0  0  0  0  0  0  0
    5.9225   -1.2918    0.0000 C   0  0  1  0  0  0  0  0  0  0  0  0
    4.4225   -1.2947    0.0000 C   0  0  0  0  0  0  0  0  0  0  0  0
    3.6700    0.0029    0.0000 S   0  0  0  0  0  0  0  0  0  0  0  0
    2.1700    0.0000    0.0000 C   0  0  0  0  0  0  0  0  0  0  0  0
    1.3400   -1.2100    0.0000 N   0  0  0  0  0  0  0  0  0  0  0  0
   -0.0900   -0.7500    0.0000 C   0  0  0  0  0  0  0  0  0  0  0  0
   -1.4500   -1.5100    0.0000 C   0  0  0  0  0  0  0  0  0  0  0  0
   -2.7300   -0.7500    0.0000 C   0  0  0  0  0  0  0  0  0  0  0  0
   -2.7300    0.7500    0.0000 C   0  0  0  0  0  0  0  0  0  0  0  0
   -1.4500    1.5100    0.0000 C   0  0  0  0  0  0  0  0  0  0  0  0
   -0.0900    0.7500    0.0000 C   0  0  0  0  0  0  0  0  0  0  0  0
    1.3400    1.2000    0.0000 S   0  0  0  0  0  0  0  0  0  0  0  0
    6.6750   -2.5893    0.0000 C   0  0  0  0  0  0  0  0  0  0  0  0
    5.9275   -3.8898    0.0000 O   0  0  0  0  0  0  0  0  0  0  0  0
    8.1750   -2.5864    0.0000 O   0  0  0  0  0  0  0  0  0  0  0  0
  2  1  1  6  0  0  0 
  2  3  1  0  0  0  0 
  3  4  1  0  0  0  0 
  4  5  1  0  0  0  0 
  5  6  2  0  0  0  0 
  6  7  1  0  0  0  0 
  7  8  2  0  0  0  0 
  8  9  1  0  0  0  0 
  9 10  2  0  0  0  0 
 10 11  1  0  0  0  0 
 11 12  2  0  0  0  0 
  7 12  1  0  0  0  0 
 12 13  1  0  0  0  0 
  5 13  1  0  0  0  0 
  2 14  1  0  0  0  0 
 14 15  2  0  0  0  0 
 14 16  1  0  0  0  0 
M  END
> <SMILES>
N[C@@H](CSc1nc2ccccc2s1)C(=O)O

$$$$

  CDK     01261921162D

 18 19  0  0  0  0  0  0  0  0999 V2000
    1.2990   -3.4200    0.0000 O   0  0  0  0  0  0  0  0  0  0  0  0
   -0.0000   -2.6700    0.0000 C   0  0  0  0  0  0  0  0  0  0  0  0
   -1.2990   -3.4200    0.0000 O   0  0  0  0  0  0  0  0  0  0  0  0
    0.0000   -1.1700    0.0000 C   0  0  0  0  0  0  0  0  0  0  0  0
   -1.3000   -0.4200    0.0000 C   0  0  0  0  0  0  0  0  0  0  0  0
   -1.3000    1.0800    0.0000 C   0  0  0  0  0  0  0  0  0  0  0  0
    0.0000    1.8300    0.0000 C   0  0  0  0  0  0  0  0  0  0  0  0
    1.3000    1.0800    0.0000 C   0  0  0  0  0  0  0  0  0  0  0  0
    1.3000   -0.4200    0.0000 C   0  0  0  0  0  0  0  0  0  0  0  0
    2.5989   -1.1702    0.0000 O   0  0  0  0  0  0  0  0  0  0  0  0
   -2.5989    1.8302    0.0000 C   0  0  0  0  0  0  0  0  0  0  0  0
   -3.8989    1.0802    0.0000 C   0  0  0  0  0  0  0  0  0  0  0  0
   -5.1989    1.8302    0.0000 C   0  0  0  0  0  0  0  0  0  0  0  0
   -5.1989    3.3302    0.0000 C   0  0  0  0  0  0  0  0  0  0  0  0
   -6.4978    4.0804    0.0000 F   0  0  0  0  0  0  0  0  0  0  0  0
   -3.8989    4.0802    0.0000 C   0  0  0  0  0  0  0  0  0  0  0  0
   -2.5989    3.3302    0.0000 C   0  0  0  0  0  0  0  0  0  0  0  0
   -1.3000    4.0804    0.0000 F   0  0  0  0  0  0  0  0  0  0  0  0
  1  2  1  0  0  0  0 
  2  3  2  0  0  0  0 
  2  4  1  0  0  0  0 
  4  5  2  0  0  0  0 
  5  6  1  0  0  0  0 
  6  7  2  0  0  0  0 
  7  8  1  0  0  0  0 
  8  9  2  0  0  0  0 
  4  9  1  0  0  0  0 
  9 10  1  0  0  0  0 
  6 11  1  0  0  0  0 
 11 12  2  0  0  0  0 
 12 13  1  0  0  0  0 
 13 14  2  0  0  0  0 
 14 15  1  0  0  0  0 
 14 16  1  0  0  0  0 
 16 17  2  0  0  0  0 
 11 17  1  0  0  0  0 
 17 18  1  0  0  0  0 
M  END
> <SMILES>
OC(=O)c1cc(ccc1O)c2ccc(F)cc2F

$$$$

  CDK     01261921162D

 30 31  0  0  1  0  0  0  0  0999 V2000
   -3.8981    7.0700    0.0000 C   0  0  0  0  0  0  0  0  0  0  0  0
   -3.8981    5.5700    0.0000 C   0  0  0  0  0  0  0  0  0  0  0  0
   -2.5990    4.8200    0.0000 C   0  0  2  0  0  0  0  0  0  0  0  0
   -1.3000    5.5700    0.0000 C   0  0  0  0  0  0  0  0  0  0  0  0
   -2.5990    3.3200    0.0000 C   0  0  0  0  0  0  0  0  0  0  0  0
   -3.8981    2.5700    0.0000 O   0  0  0  0  0  0  0  0  0  0  0  0
   -1.3000    2.5700    0.0000 O   0  0  0  0  0  0  0  0  0  0  0  0
   -1.3000    1.0700    0.0000 C   0  0  1  0  0  0  0  0  0  0  0  0
   -2.6000    0.3200    0.0000 C   0  0  0  0  0  0  0  0  0  0  0  0
   -2.6000   -1.1800    0.0000 C   0  0  2  0  0  0  0  0  0  0  0  0
   -3.8989   -1.9302    0.0000 O   0  0  0  0  0  0  0  0  0  0  0  0
   -1.3000   -1.9300    0.0000 C   0  0  0  0  0  0  0  0  0  0  0  0
   -0.0000   -1.1800    0.0000 C   0  0  0  0  0  0  0  0  0  0  0  0
    1.3000   -1.9300    0.0000 C   0  0  0  0  0  0  0  0  0  0  0  0
    2.6000   -1.1800    0.0000 C   0  0  0  0  0  0  0  0  0  0  0  0
    2.6000    0.3200    0.0000 C   0  0  2  0  0  0  0  0  0  0  0  0
    3.8989    1.0702    0.0000 C   0  0  0  0  0  0  0  0  0  0  0  0
    1.3000    1.0700    0.0000 C   0  0  2  0  0  0  0  0  0  0  0  0
    1.3000    2.5700    0.0000 C   0  0  0  0  0  0  0  0  0  0  0  0
    2.5990    3.3200    0.0000 C   0  0  0  0  0  0  0  0  0  0  0  0
    2.5990    4.8200    0.0000 C   0  0  1  0  0  0  0  0  0  0  0  0
    1.3000    5.5700    0.0000 O   0  0  0  0  0  0  0  0  0  0  0  0
    3.8981    5.5700    0.0000 C   0  0  0  0  0  0  0  0  0  0  0  0
    3.8981    7.0700    0.0000 C   0  0  1  0  0  0  0  0  0  0  0  0
    2.5990    7.8200    0.0000 O   0  0  0  0  0  0  0  0  0  0  0  0
    5.1971    7.8200    0.0000 C   0  0  0  0  0  0  0  0  0  0  0  0
    5.1971    9.3200    0.0000 C   0  0  0  0  0  0  0  0  0  0  0  0
    3.8981   10.0700    0.0000 O   0  0  0  0  0  0  0  0  0  0  0  0
    6.4962   10.0700    0.0000 O   0  0  0  0  0  0  0  0  0  0  0  0
   -0.0000    0.3200    0.0000 C   0  0  1  0  0  0  0  0  0  0  0  0
  1  2  1  0  0  0  0 
  2  3  1  0  0  0  0 
  3  4  1  6  0  0  0 
  3  5  1  0  0  0  0 
  5  6  2  0  0  0  0 
  5  7  1  0  0  0  0 
  8  7  1  6  0  0  0 
  8  9  1  0  0  0  0 
  9 10  1  0  0  0  0 
 10 11  1  1  0  0  0 
 10 12  1  0  0  0  0 
 12 13  2  0  0  0  0 
 13 14  1  0  0  0  0 
 14 15  2  0  0  0  0 
 15 16  1  0  0  0  0 
 16 17  1  1  0  0  0 
 16 18  1  0  0  0  0 
 18 19  1  1  0  0  0 
 19 20  1  0  0  0  0 
 20 21  1  0  0  0  0 
 21 22  1  1  0  0  0 
 21 23  1  0  0  0  0 
 23 24  1  0  0  0  0 
 24 25  1  1  0  0  0 
 24 26  1  0  0  0  0 
 26 27  1  0  0  0  0 
 27 28  2  0  0  0  0 
 27 29  1  0  0  0  0 
 18 30  1  0  0  0  0 
  8 30  1  0  0  0  0 
 30 13  1  6  0  0  0 
M  END
> <SMILES>
CC[C@H](C)C(=O)O[C@H]1C[C@H](O)C=C2C=C[C@H](C)[C@H](CC[C@@H](O)C[C@@H](O)CC(=O)O)[C@@H]12

$$$$

  CDK     01261921162D

 32 35  0  0  1  0  0  0  0  0999 V2000
    4.6333    3.9058    0.0000 C   0  0  0  0  0  0  0  0  0  0  0  0
    3.3263    3.1699    0.0000 N   0  0  0  0  0  0  0  0  0  0  0  0
    2.0354    3.9339    0.0000 C   0  0  0  0  0  0  0  0  0  0  0  0
    3.3100    1.6700    0.0000 C   0  0  1  0  0  0  0  0  0  0  0  0
    2.0600    0.9400    0.0000 C   0  0  2  0  0  0  0  0  0  0  0  0
    0.6900    1.6700    0.0000 C   0  0  0  0  0  0  0  0  0  0  0  0
   -0.5500    0.9400    0.0000 C   0  0  1  0  0  0  0  0  0  0  0  0
   -0.5500   -0.5600    0.0000 C   0  0  0  0  0  0  0  0  0  0  0  0
    0.6900   -1.2900    0.0000 C   0  0  0  0  0  0  0  0  0  0  0  0
    0.6581   -2.7897    0.0000 O   0  0  0  0  0  0  0  0  0  0  0  0
    2.0600   -0.5600    0.0000 C   0  0  1  0  0  0  0  0  0  0  0  0
    2.0308   -2.0597    0.0000 O   0  0  0  0  0  0  0  0  0  0  0  0
    3.3100   -1.2900    0.0000 C   0  0  0  0  0  0  0  0  0  0  0  0
    3.3263   -2.7899    0.0000 O   0  0  0  0  0  0  0  0  0  0  0  0
    4.5000   -0.5600    0.0000 C   0  0  0  0  0  0  0  0  0  0  0  0
    4.5000    0.9400    0.0000 C   0  0  0  0  0  0  0  0  0  0  0  0
    5.8089    1.6726    0.0000 O   0  0  0  0  0  0  0  0  0  0  0  0
    5.8089   -1.2926    0.0000 C   0  0  0  0  0  0  0  0  0  0  0  0
    5.8289   -2.7925    0.0000 O   0  0  0  0  0  0  0  0  0  0  0  0
    7.0978   -0.5254    0.0000 N   0  0  0  0  0  0  0  0  0  0  0  0
   -1.9200   -1.2900    0.0000 C   0  0  0  0  0  0  0  0  0  0  0  0
   -1.9492   -2.7897    0.0000 O   0  0  0  0  0  0  0  0  0  0  0  0
   -3.1700   -0.5600    0.0000 C   0  0  0  0  0  0  0  0  0  0  0  0
   -4.4100   -1.2900    0.0000 C   0  0  0  0  0  0  0  0  0  0  0  0
   -4.3781   -2.7897    0.0000 O   0  0  0  0  0  0  0  0  0  0  0  0
   -5.7800   -0.5600    0.0000 C   0  0  0  0  0  0  0  0  0  0  0  0
   -5.7800    0.9400    0.0000 C   0  0  0  0  0  0  0  0  0  0  0  0
   -4.4100    1.6700    0.0000 C   0  0  0  0  0  0  0  0  0  0  0  0
   -3.1700    0.9400    0.0000 C   0  0  0  0  0  0  0  0  0  0  0  0
   -1.9200    1.6700    0.0000 C   0  0  2  0  0  0  0  0  0  0  0  0
   -0.9841    2.8422    0.0000 C   0  0  0  0  0  0  0  0  0  0  0  0
   -2.9009    2.8048    0.0000 O   0  0  0  0  0  0  0  0  0  0  0  0
  1  2  1  0  0  0  0 
  2  3  1  0  0  0  0 
  4  2  1  6  0  0  0 
  4  5  1  0  0  0  0 
  5  6  1  1  0  0  0 
  7  6  1  1  0  0  0 
  7  8  1  0  0  0  0 
  8  9  2  0  0  0  0 
  9 10  1  0  0  0  0 
  9 11  1  0  0  0  0 
  5 11  1  0  0  0  0 
 11 12  1  6  0  0  0 
 11 13  1  0  0  0  0 
 13 14  2  0  0  0  0 
 13 15  1  0  0  0  0 
 15 16  2  0  0  0  0 
  4 16  1  0  0  0  0 
 16 17  1  0  0  0  0 
 15 18  1  0  0  0  0 
 18 19  2  0  0  0  0 
 18 20  1  0  0  0  0 
  8 21  1  0  0  0  0 
 21 22  2  0  0  0  0 
 21 23  1  0  0  0  0 
 23 24  2  0  0  0  0 
 24 25  1  0  0  0  0 
 24 26  1  0  0  0  0 
 26 27  2  0  0  0  0 
 27 28  1  0  0  0  0 
 28 29  2  0  0  0  0 
 23 29  1  0  0  0  0 
 29 30  1  0  0  0  0 
  7 30  1  0  0  0  0 
 30 31  1  6  0  0  0 
 30 32  1  1  0  0  0 
M  END
> <SMILES>
CN(C)[C@H]1[C@@H]2C[C@H]3C(=C(O)[C@]2(O)C(=O)C(=C1O)C(=O)N)C(=O)c4c(O)cccc4[C@@]3(C)O

$$$$

  CDK     01261921162D

 33 36  0  0  1  0  0  0  0  0999 V2000
    4.6190    4.0600    0.0000 C   0  0  0  0  0  0  0  0  0  0  0  0
    3.3200    3.3100    0.0000 N   0  0  0  0  0  0  0  0  0  0  0  0
    2.0210    4.0600    0.0000 C   0  0  0  0  0  0  0  0  0  0  0  0
    3.3200    1.8100    0.0000 C   0  0  1  0  0  0  0  0  0  0  0  0
    2.0200    1.0600    0.0000 C   0  0  2  0  0  0  0  0  0  0  0  0
    0.7200    1.8100    0.0000 C   0  0  0  0  0  0  0  0  0  0  0  0
   -0.5800    1.0600    0.0000 C   0  0  2  0  0  0  0  0  0  0  0  0
   -1.8800    1.8100    0.0000 C   0  0  0  0  0  0  0  0  0  0  0  0
   -3.1700    1.0600    0.0000 C   0  0  0  0  0  0  0  0  0  0  0  0
   -4.4700    1.8100    0.0000 C   0  0  0  0  0  0  0  0  0  0  0  0
   -5.7700    1.0600    0.0000 C   0  0  0  0  0  0  0  0  0  0  0  0
   -5.7700   -0.4400    0.0000 C   0  0  0  0  0  0  0  0  0  0  0  0
   -4.4700   -1.1900    0.0000 C   0  0  0  0  0  0  0  0  0  0  0  0
   -4.4700   -2.6900    0.0000 O   0  0  0  0  0  0  0  0  0  0  0  0
   -3.1700   -0.4400    0.0000 C   0  0  0  0  0  0  0  0  0  0  0  0
   -1.8800   -1.1900    0.0000 C   0  0  0  0  0  0  0  0  0  0  0  0
   -1.8825   -2.6900    0.0000 O   0  0  0  0  0  0  0  0  0  0  0  0
   -0.5800   -0.4400    0.0000 C   0  0  0  0  0  0  0  0  0  0  0  0
    0.7200   -1.1900    0.0000 C   0  0  0  0  0  0  0  0  0  0  0  0
    0.7200   -2.6900    0.0000 O   0  0  0  0  0  0  0  0  0  0  0  0
    2.0200   -0.4400    0.0000 C   0  0  1  0  0  0  0  0  0  0  0  0
    2.0200   -1.9400    0.0000 O   0  0  0  0  0  0  0  0  0  0  0  0
    3.3200   -1.1900    0.0000 C   0  0  0  0  0  0  0  0  0  0  0  0
    3.3200   -2.6900    0.0000 O   0  0  0  0  0  0  0  0  0  0  0  0
    4.6200   -0.4400    0.0000 C   0  0  0  0  0  0  0  0  0  0  0  0
    4.6200    1.0600    0.0000 C   0  0  0  0  0  0  0  0  0  0  0  0
    5.9189    1.8102    0.0000 O   0  0  0  0  0  0  0  0  0  0  0  0
    5.9189   -1.1902    0.0000 C   0  0  0  0  0  0  0  0  0  0  0  0
    5.9187   -2.6902    0.0000 O   0  0  0  0  0  0  0  0  0  0  0  0
    7.2181   -0.4404    0.0000 N   0  0  0  0  0  0  0  0  0  0  0  0
   -4.4700    3.3100    0.0000 N   0  0  0  0  0  0  0  0  0  0  0  0
   -5.7690    4.0600    0.0000 C   0  0  0  0  0  0  0  0  0  0  0  0
   -3.1710    4.0600    0.0000 C   0  0  0  0  0  0  0  0  0  0  0  0
  1  2  1  0  0  0  0 
  2  3  1  0  0  0  0 
  4  2  1  6  0  0  0 
  4  5  1  0  0  0  0 
  5  6  1  1  0  0  0 
  7  6  1  1  0  0  0 
  7  8  1  0  0  0  0 
  8  9  1  0  0  0  0 
  9 10  2  0  0  0  0 
 10 11  1  0  0  0  0 
 11 12  2  0  0  0  0 
 12 13  1  0  0  0  0 
 13 14  1  0  0  0  0 
 13 15  2  0  0  0  0 
  9 15  1  0  0  0  0 
 15 16  1  0  0  0  0 
 16 17  2  0  0  0  0 
 16 18  1  0  0  0  0 
  7 18  1  0  0  0  0 
 18 19  2  0  0  0  0 
 19 20  1  0  0  0  0 
 19 21  1  0  0  0  0 
  5 21  1  0  0  0  0 
 21 22  1  6  0  0  0 
 21 23  1  0  0  0  0 
 23 24  2  0  0  0  0 
 23 25  1  0  0  0  0 
 25 26  2  0  0  0  0 
  4 26  1  0  0  0  0 
 26 27  1  0  0  0  0 
 25 28  1  0  0  0  0 
 28 29  2  0  0  0  0 
 28 30  1  0  0  0  0 
 10 31  1  0  0  0  0 
 31 32  1  0  0  0  0 
 31 33  1  0  0  0  0 
M  END
> <SMILES>
CN(C)[C@H]1[C@@H]2C[C@@H]3Cc4c(ccc(O)c4C(=O)C3=C(O)[C@]2(O)C(=O)C(=C1O)C(=O)N)N(C)C

$$$$

  CDK     01261921162D

 25 28  0  0  0  0  0  0  0  0999 V2000
    3.8977    3.7546    0.0000 O   0  0  0  0  0  0  0  0  0  0  0  0
    2.5998    3.0026    0.0000 C   0  0  0  0  0  0  0  0  0  0  0  0
    2.6021    1.5026    0.0000 O   0  0  0  0  0  0  0  0  0  0  0  0
    1.2996    3.7506    0.0000 C   0  0  0  0  0  0  0  0  0  0  0  0
    1.2954    5.2428    0.0000 C   0  0  0  0  0  0  0  0  0  0  0  0
   -0.0036    5.9930    0.0000 C   0  0  0  0  0  0  0  0  0  0  0  0
   -1.2982    5.2510    0.0000 C   0  0  0  0  0  0  0  0  0  0  0  0
   -1.2989    3.7502    0.0000 C   0  0  0  0  0  0  0  0  0  0  0  0
    0.0000    3.0000    0.0000 C   0  0  0  0  0  0  0  0  0  0  0  0
   -0.0000    0.5400    0.0000 C   0  0  0  0  0  0  0  0  0  0  0  0
    1.3000   -0.2100    0.0000 C   0  0  0  0  0  0  0  0  0  0  0  0
    2.6000    0.5400    0.0000 C   0  0  0  0  0  0  0  0  0  0  0  0
    3.9000   -0.2100    0.0000 C   0  0  0  0  0  0  0  0  0  0  0  0
    3.9000   -1.7100    0.0000 C   0  0  0  0  0  0  0  0  0  0  0  0
    5.1989   -2.4602    0.0000 O   0  0  0  0  0  0  0  0  0  0  0  0
    2.6000   -2.4600    0.0000 C   0  0  0  0  0  0  0  0  0  0  0  0
    1.3000   -1.7100    0.0000 C   0  0  0  0  0  0  0  0  0  0  0  0
   -0.0000   -2.4600    0.0000 O   0  0  0  0  0  0  0  0  0  0  0  0
   -1.3000   -1.7100    0.0000 C   0  0  0  0  0  0  0  0  0  0  0  0
   -2.6000   -2.4600    0.0000 C   0  0  0  0  0  0  0  0  0  0  0  0
   -3.9000   -1.7100    0.0000 C   0  0  0  0  0  0  0  0  0  0  0  0
   -5.1989   -2.4602    0.0000 O   0  0  0  0  0  0  0  0  0  0  0  0
   -3.9000   -0.2100    0.0000 C   0  0  0  0  0  0  0  0  0  0  0  0
   -2.6000    0.5400    0.0000 C   0  0  0  0  0  0  0  0  0  0  0  0
   -1.3000   -0.2100    0.0000 C   0  0  0  0  0  0  0  0  0  0  0  0
  1  2  1  0  0  0  0 
  2  3  2  0  0  0  0 
  2  4  1  0  0  0  0 
  4  5  2  0  0  0  0 
  5  6  1  0  0  0  0 
  6  7  2  0  0  0  0 
  7  8  1  0  0  0  0 
  8  9  2  0  0  0  0 
  4  9  1  0  0  0  0 
  9 10  1  0  0  0  0 
 10 11  2  0  0  0  0 
 11 12  1  0  0  0  0 
 12 13  2  0  0  0  0 
 13 14  1  0  0  0  0 
 14 15  2  0  0  0  0 
 14 16  1  0  0  0  0 
 16 17  2  0  0  0  0 
 11 17  1  0  0  0  0 
 17 18  1  0  0  0  0 
 18 19  1  0  0  0  0 
 19 20  2  0  0  0  0 
 20 21  1  0  0  0  0 
 21 22  1  0  0  0  0 
 21 23  2  0  0  0  0 
 23 24  1  0  0  0  0 
 24 25  2  0  0  0  0 
 10 25  1  0  0  0  0 
 19 25  1  0  0  0  0 
M  END
> <SMILES>
OC(=O)c1ccccc1C2=C3C=CC(=O)C=C3Oc4cc(O)ccc24

$$$$

  CDK     01261921162D

 26 28  0  0  1  0  0  0  0  0999 V2000
    7.5062   -0.3531    0.0000 C   0  0  0  0  0  0  0  0  0  0  0  0
    6.2067   -1.1023    0.0000 C   0  0  0  0  0  0  0  0  0  0  0  0
    6.2058   -2.6023    0.0000 O   0  0  0  0  0  0  0  0  0  0  0  0
    4.9081   -0.3516    0.0000 O   0  0  0  0  0  0  0  0  0  0  0  0
    3.6086   -1.1008    0.0000 C   0  0  0  0  0  0  0  0  0  0  0  0
    2.3100   -0.3500    0.0000 C   0  0  0  0  0  0  0  0  0  0  0  0
    0.9900   -1.1100    0.0000 C   0  0  0  0  0  0  0  0  0  0  0  0
   -0.3000   -0.3300    0.0000 N   0  0  0  0  0  0  0  0  0  0  0  0
   -0.3000    1.1700    0.0000 C   0  0  2  0  0  0  0  0  0  0  0  0
    0.9900    1.9200    0.0000 S   0  0  0  0  0  0  0  0  0  0  0  0
    2.3100    1.1700    0.0000 C   0  0  0  0  0  0  0  0  0  0  0  0
   -1.8000    1.1700    0.0000 C   0  0  2  0  0  0  0  0  0  0  0  0
   -2.8607    2.2307    0.0000 N   0  0  0  0  0  0  0  0  0  0  0  0
   -4.3095    1.8424    0.0000 C   0  0  0  0  0  0  0  0  0  0  0  0
   -4.6978    0.3935    0.0000 O   0  0  0  0  0  0  0  0  0  0  0  0
   -5.3702    2.9031    0.0000 C   0  0  0  0  0  0  0  0  0  0  0  0
   -6.8191    2.5149    0.0000 C   0  0  0  0  0  0  0  0  0  0  0  0
   -7.9849    3.4622    0.0000 C   0  0  0  0  0  0  0  0  0  0  0  0
   -9.2419    2.6437    0.0000 C   0  0  0  0  0  0  0  0  0  0  0  0
   -8.8471    1.1943    0.0000 C   0  0  0  0  0  0  0  0  0  0  0  0
   -7.3529    1.1172    0.0000 S   0  0  0  0  0  0  0  0  0  0  0  0
   -1.8000   -0.3300    0.0000 C   0  0  0  0  0  0  0  0  0  0  0  0
   -2.8607   -1.3907    0.0000 O   0  0  0  0  0  0  0  0  0  0  0  0
    0.9739   -2.6099    0.0000 C   0  0  0  0  0  0  0  0  0  0  0  0
   -0.3331   -3.3460    0.0000 O   0  0  0  0  0  0  0  0  0  0  0  0
    2.2649   -3.3738    0.0000 O   0  0  0  0  0  0  0  0  0  0  0  0
  1  2  1  0  0  0  0 
  2  3  2  0  0  0  0 
  2  4  1  0  0  0  0 
  4  5  1  0  0  0  0 
  5  6  1  0  0  0  0 
  6  7  2  0  0  0  0 
  7  8  1  0  0  0  0 
  9  8  1  1  0  0  0 
  9 10  1  0  0  0  0 
 10 11  1  0  0  0  0 
  6 11  1  0  0  0  0 
  9 12  1  0  0  0  0 
 12 13  1  1  0  0  0 
 13 14  1  0  0  0  0 
 14 15  2  0  0  0  0 
 14 16  1  0  0  0  0 
 16 17  1  0  0  0  0 
 17 18  2  0  0  0  0 
 18 19  1  0  0  0  0 
 19 20  2  0  0  0  0 
 20 21  1  0  0  0  0 
 17 21  1  0  0  0  0 
 12 22  1  0  0  0  0 
  8 22  1  0  0  0  0 
 22 23  2  0  0  0  0 
  7 24  1  0  0  0  0 
 24 25  2  0  0  0  0 
 24 26  1  0  0  0  0 
M  END
> <SMILES>
CC(=O)OCC1=C(N2[C@H](SC1)[C@H](NC(=O)Cc3cccs3)C2=O)C(=O)O

$$$$

  CDK     01261921162D

 85 85  0  0  1  0  0  0  0  0999 V2000
  -12.2717   -2.5165    0.0000 C   0  0  0  0  0  0  0  0  0  0  0  0
  -10.9747   -1.7630    0.0000 C   0  0  0  0  0  0  0  0  0  0  0  0
   -9.6736   -2.5094    0.0000 C   0  0  2  0  0  0  0  0  0  0  0  0
   -9.6736   -3.9994    0.0000 N   0  0  0  0  0  0  0  0  0  0  0  0
   -8.3736   -4.7494    0.0000 C   0  0  0  0  0  0  0  0  0  0  0  0
   -8.3711   -6.2494    0.0000 O   0  0  0  0  0  0  0  0  0  0  0  0
   -7.0837   -3.9994    0.0000 C   0  0  2  0  0  0  0  0  0  0  0  0
   -5.4527   -2.8768    0.0000 C   0  0  2  0  0  0  0  0  0  0  0  0
   -4.0983   -3.5217    0.0000 O   0  0  0  0  0  0  0  0  0  0  0  0
   -5.5714   -1.3815    0.0000 C   0  0  2  0  0  0  0  0  0  0  0  0
   -6.9257   -0.7367    0.0000 C   0  0  0  0  0  0  0  0  0  0  0  0
   -4.3358   -0.5311    0.0000 C   0  0  0  0  0  0  0  0  0  0  0  0
   -2.9814   -1.1759    0.0000 C   0  0  0  0  0  0  0  0  0  0  0  0
   -1.7458   -0.3255    0.0000 C   0  0  0  0  0  0  0  0  0  0  0  0
   -0.3915   -0.9703    0.0000 C   0  0  0  0  0  0  0  0  0  0  0  0
   -5.7836   -4.7494    0.0000 N   0  0  0  0  0  0  0  0  0  0  0  0
   -5.7836   -6.2494    0.0000 C   0  0  0  0  0  0  0  0  0  0  0  0
   -4.4837   -3.9994    0.0000 C   0  0  0  0  0  0  0  0  0  0  0  0
   -4.4837   -2.4994    0.0000 O   0  0  0  0  0  0  0  0  0  0  0  0
   -3.1837   -4.7494    0.0000 C   0  0  2  0  0  0  0  0  0  0  0  0
   -3.1837   -6.2494    0.0000 C   0  0  0  0  0  0  0  0  0  0  0  0
   -4.4827   -6.9994    0.0000 C   0  0  0  0  0  0  0  0  0  0  0  0
   -1.8846   -6.9994    0.0000 C   0  0  0  0  0  0  0  0  0  0  0  0
   -1.8837   -3.9994    0.0000 N   0  0  0  0  0  0  0  0  0  0  0  0
   -1.8837   -2.4994    0.0000 C   0  0  0  0  0  0  0  0  0  0  0  0
   -0.5837   -4.7494    0.0000 C   0  0  0  0  0  0  0  0  0  0  0  0
   -0.5811   -6.2494    0.0000 O   0  0  0  0  0  0  0  0  0  0  0  0
    0.7063   -3.9994    0.0000 C   0  0  2  0  0  0  0  0  0  0  0  0
    0.7105   -6.4594    0.0000 C   0  0  0  0  0  0  0  0  0  0  0  0
    2.0108   -7.2073    0.0000 C   0  0  0  0  0  0  0  0  0  0  0  0
    2.0133   -8.7073    0.0000 C   0  0  0  0  0  0  0  0  0  0  0  0
    3.3085   -6.4551    0.0000 C   0  0  0  0  0  0  0  0  0  0  0  0
    2.0064   -4.7494    0.0000 N   0  0  0  0  0  0  0  0  0  0  0  0
    2.0064   -6.2494    0.0000 C   0  0  0  0  0  0  0  0  0  0  0  0
    3.3063   -3.9994    0.0000 C   0  0  0  0  0  0  0  0  0  0  0  0
    3.3063   -2.4994    0.0000 O   0  0  0  0  0  0  0  0  0  0  0  0
    4.6063   -4.7494    0.0000 C   0  0  2  0  0  0  0  0  0  0  0  0
    4.2625   -6.6994    0.0000 C   0  0  0  0  0  0  0  0  0  0  0  0
    5.4116   -7.6635    0.0000 C   0  0  0  0  0  0  0  0  0  0  0  0
    5.1511   -9.1408    0.0000 C   0  0  0  0  0  0  0  0  0  0  0  0
    6.8211   -7.1505    0.0000 C   0  0  0  0  0  0  0  0  0  0  0  0
    5.9064   -3.9994    0.0000 N   0  0  0  0  0  0  0  0  0  0  0  0
    5.9064   -2.4994    0.0000 C   0  0  0  0  0  0  0  0  0  0  0  0
    7.2063   -4.7494    0.0000 C   0  0  0  0  0  0  0  0  0  0  0  0
    7.2089   -6.2494    0.0000 O   0  0  0  0  0  0  0  0  0  0  0  0
    8.4964   -3.9994    0.0000 C   0  0  1  0  0  0  0  0  0  0  0  0
    9.7175   -4.8706    0.0000 C   0  0  0  0  0  0  0  0  0  0  0  0
    8.9964   -1.4694    0.0000 N   0  0  0  0  0  0  0  0  0  0  0  0
    8.4663    0.7606    0.0000 C   0  0  0  0  0  0  0  0  0  0  0  0
    9.6691    1.6569    0.0000 O   0  0  0  0  0  0  0  0  0  0  0  0
    7.1663    1.5106    0.0000 C   0  0  2  0  0  0  0  0  0  0  0  0
    5.8674    0.7604    0.0000 C   0  0  0  0  0  0  0  0  0  0  0  0
    7.1663    3.0106    0.0000 N   0  0  0  0  0  0  0  0  0  0  0  0
    5.8664    3.7606    0.0000 C   0  0  0  0  0  0  0  0  0  0  0  0
    5.8664    5.2606    0.0000 O   0  0  0  0  0  0  0  0  0  0  0  0
    4.5663    3.0106    0.0000 C   0  0  2  0  0  0  0  0  0  0  0  0
    4.5663    5.4706    0.0000 C   0  0  0  0  0  0  0  0  0  0  0  0
    5.8654    6.2206    0.0000 C   0  0  0  0  0  0  0  0  0  0  0  0
    5.8654    7.7206    0.0000 C   0  0  0  0  0  0  0  0  0  0  0  0
    7.1644    5.4706    0.0000 C   0  0  0  0  0  0  0  0  0  0  0  0
    3.2664    3.7606    0.0000 N   0  0  0  0  0  0  0  0  0  0  0  0
    3.2638    5.2606    0.0000 C   0  0  0  0  0  0  0  0  0  0  0  0
    1.9763    3.0106    0.0000 C   0  0  0  0  0  0  0  0  0  0  0  0
    1.9789    1.5106    0.0000 O   0  0  0  0  0  0  0  0  0  0  0  0
    0.6763    3.7606    0.0000 C   0  0  1  0  0  0  0  0  0  0  0  0
   -0.6237    3.0106    0.0000 N   0  0  0  0  0  0  0  0  0  0  0  0
   -1.9237    3.7606    0.0000 C   0  0  0  0  0  0  0  0  0  0  0  0
   -1.9237    5.2606    0.0000 O   0  0  0  0  0  0  0  0  0  0  0  0
   -3.2236    3.0106    0.0000 C   0  0  2  0  0  0  0  0  0  0  0  0
   -3.2236    5.4706    0.0000 C   0  0  0  0  0  0  0  0  0  0  0  0
   -4.5227    6.2206    0.0000 C   0  0  0  0  0  0  0  0  0  0  0  0
   -4.5227    7.7206    0.0000 C   0  0  0  0  0  0  0  0  0  0  0  0
   -5.8217    5.4706    0.0000 C   0  0  0  0  0  0  0  0  0  0  0  0
   -4.5237    3.7606    0.0000 N   0  0  0  0  0  0  0  0  0  0  0  0
   -4.5262    5.2606    0.0000 C   0  0  0  0  0  0  0  0  0  0  0  0
   -5.8137    3.0106    0.0000 C   0  0  0  0  0  0  0  0  0  0  0  0
   -5.8111    1.5106    0.0000 O   0  0  0  0  0  0  0  0  0  0  0  0
   -7.1136    3.7606    0.0000 C   0  0  0  0  0  0  0  0  0  0  0  0
   -8.4137    3.0106    0.0000 N   0  0  0  0  0  0  0  0  0  0  0  0
   -9.7157    3.7553    0.0000 C   0  0  0  0  0  0  0  0  0  0  0  0
   -8.3736   -1.7494    0.0000 C   0  0  0  0  0  0  0  0  0  0  0  0
   -7.0695   -2.4904    0.0000 O   0  0  0  0  0  0  0  0  0  0  0  0
    0.6763    5.2606    0.0000 C   0  0  0  0  0  0  0  0  0  0  0  0
    1.9754    6.0106    0.0000 C   0  0  0  0  0  0  0  0  0  0  0  0
   -0.6227    6.0106    0.0000 C   0  0  0  0  0  0  0  0  0  0  0  0
  1  2  1  0  0  0  0 
  3  2  1  1  0  0  0 
  3  4  1  0  0  0  0 
  4  5  1  0  0  0  0 
  5  6  2  0  0  0  0 
  5  7  1  0  0  0  0 
  7  8  1  0  0  0  0 
  8  9  1  1  0  0  0 
  8 10  1  0  0  0  0 
 10 11  1  6  0  0  0 
 10 12  1  0  0  0  0 
 12 13  1  0  0  0  0 
 13 14  2  0  0  0  0 
 14 15  1  4  0  0  0 
  7 16  1  6  0  0  0 
 16 17  1  0  0  0  0 
 16 18  1  0  0  0  0 
 18 19  2  0  0  0  0 
 18 20  1  0  0  0  0 
 20 21  1  1  0  0  0 
 21 22  1  0  0  0  0 
 21 23  1  0  0  0  0 
 20 24  1  0  0  0  0 
 24 25  1  0  0  0  0 
 24 26  1  0  0  0  0 
 26 27  2  0  0  0  0 
 26 28  1  0  0  0  0 
 28 29  1  6  0  0  0 
 29 30  1  0  0  0  0 
 30 31  1  0  0  0  0 
 30 32  1  0  0  0  0 
 28 33  1  0  0  0  0 
 33 34  1  0  0  0  0 
 33 35  1  0  0  0  0 
 35 36  2  0  0  0  0 
 35 37  1  0  0  0  0 
 37 38  1  1  0  0  0 
 38 39  1  0  0  0  0 
 39 40  1  0  0  0  0 
 39 41  1  0  0  0  0 
 37 42  1  0  0  0  0 
 42 43  1  0  0  0  0 
 42 44  1  0  0  0  0 
 44 45  2  0  0  0  0 
 44 46  1  0  0  0  0 
 46 47  1  6  0  0  0 
 46 48  1  0  0  0  0 
 48 49  1  0  0  0  0 
 49 50  2  0  0  0  0 
 49 51  1  0  0  0  0 
 51 52  1  6  0  0  0 
 51 53  1  0  0  0  0 
 53 54  1  0  0  0  0 
 54 55  2  0  0  0  0 
 54 56  1  0  0  0  0 
 56 57  1  6  0  0  0 
 57 58  1  0  0  0  0 
 58 59  1  0  0  0  0 
 58 60  1  0  0  0  0 
 56 61  1  0  0  0  0 
 61 62  1  0  0  0  0 
 61 63  1  0  0  0  0 
 63 64  2  0  0  0  0 
 63 65  1  0  0  0  0 
 65 66  1  0  0  0  0 
 66 67  1  0  0  0  0 
 67 68  2  0  0  0  0 
 67 69  1  0  0  0  0 
 69 70  1  6  0  0  0 
 70 71  1  0  0  0  0 
 71 72  1  0  0  0  0 
 71 73  1  0  0  0  0 
 69 74  1  0  0  0  0 
 74 75  1  0  0  0  0 
 74 76  1  0  0  0  0 
 76 77  2  0  0  0  0 
 76 78  1  0  0  0  0 
 78 79  1  0  0  0  0 
 79 80  1  0  0  0  0 
 79 81  1  0  0  0  0 
  3 81  1  0  0  0  0 
 81 82  2  0  0  0  0 
 65 83  1  1  0  0  0 
 83 84  1  0  0  0  0 
 83 85  1  0  0  0  0 
M  END
> <SMILES>
CC[C@@H]1NC(=O)[C@H]([C@H](O)[C@H](C)CC=CC)N(C)C(=O)[C@H](C(C)C)N(C)C(=O)[C@H](CC(C)C)N(C)C(=O)[C@H](CC(C)C)N(C)C(=O)[C@@H](C)NC(=O)[C@H](C)NC(=O)[C@H](CC(C)C)N(C)C(=O)[C@@H](NC(=O)[C@H](CC(C)C)N(C)C(=O)CN(C)C1=O)C(C)C

$$$$

  CDK     01261921162D

 27 29  0  0  1  0  0  0  0  0999 V2000
   -5.0589   -1.5802    0.0000 C   0  0  0  0  0  0  0  0  0  0  0  0
   -3.7600   -0.8300    0.0000 C   0  0  0  0  0  0  0  0  0  0  0  0
   -3.7600    0.6700    0.0000 C   0  0  0  0  0  0  0  0  0  0  0  0
   -5.0589    1.4202    0.0000 C   0  0  0  0  0  0  0  0  0  0  0  0
   -2.4600    1.4200    0.0000 C   0  0  0  0  0  0  0  0  0  0  0  0
   -1.1600    0.6700    0.0000 C   0  0  0  0  0  0  0  0  0  0  0  0
    0.1400    1.4200    0.0000 N   0  0  0  0  0  0  0  0  0  0  0  0
    0.1400    2.9200    0.0000 C   0  0  0  0  0  0  0  0  0  0  0  0
    1.4390    3.6700    0.0000 C   0  0  2  0  0  0  0  0  0  0  0  0
    2.7381    2.9200    0.0000 O   0  0  0  0  0  0  0  0  0  0  0  0
    1.4390    5.1700    0.0000 C   0  0  2  0  0  0  0  0  0  0  0  0
    0.1400    5.9200    0.0000 O   0  0  0  0  0  0  0  0  0  0  0  0
    2.7381    5.9200    0.0000 C   0  0  2  0  0  0  0  0  0  0  0  0
    4.0371    5.1700    0.0000 O   0  0  0  0  0  0  0  0  0  0  0  0
    2.7381    7.4200    0.0000 C   0  0  0  0  0  0  0  0  0  0  0  0
    4.0371    8.1700    0.0000 O   0  0  0  0  0  0  0  0  0  0  0  0
    1.4400    0.6700    0.0000 C   0  0  0  0  0  0  0  0  0  0  0  0
    2.7300    1.4200    0.0000 N   0  0  0  0  0  0  0  0  0  0  0  0
    4.0300    0.6700    0.0000 C   0  0  0  0  0  0  0  0  0  0  0  0
    5.3289    1.4202    0.0000 O   0  0  0  0  0  0  0  0  0  0  0  0
    4.0300   -0.8300    0.0000 N   0  0  0  0  0  0  0  0  0  0  0  0
    2.7300   -1.5800    0.0000 C   0  0  0  0  0  0  0  0  0  0  0  0
    2.7275   -3.0800    0.0000 O   0  0  0  0  0  0  0  0  0  0  0  0
    1.4400   -0.8300    0.0000 C   0  0  0  0  0  0  0  0  0  0  0  0
    0.1400   -1.5800    0.0000 N   0  0  0  0  0  0  0  0  0  0  0  0
   -1.1600   -0.8300    0.0000 C   0  0  0  0  0  0  0  0  0  0  0  0
   -2.4600   -1.5800    0.0000 C   0  0  0  0  0  0  0  0  0  0  0  0
  1  2  1  0  0  0  0 
  2  3  2  0  0  0  0 
  3  4  1  0  0  0  0 
  3  5  1  0  0  0  0 
  5  6  2  0  0  0  0 
  6  7  1  0  0  0  0 
  7  8  1  0  0  0  0 
  8  9  1  0  0  0  0 
  9 10  1  1  0  0  0 
  9 11  1  0  0  0  0 
 11 12  1  6  0  0  0 
 11 13  1  0  0  0  0 
 13 14  1  1  0  0  0 
 13 15  1  0  0  0  0 
 15 16  1  0  0  0  0 
  7 17  1  0  0  0  0 
 17 18  2  0  0  0  0 
 18 19  1  0  0  0  0 
 19 20  2  0  0  0  0 
 19 21  1  0  0  0  0 
 21 22  1  0  0  0  0 
 22 23  2  0  0  0  0 
 22 24  1  0  0  0  0 
 17 24  1  0  0  0  0 
 24 25  2  0  0  0  0 
 25 26  1  0  0  0  0 
  6 26  1  0  0  0  0 
 26 27  2  0  0  0  0 
  2 27  1  0  0  0  0 
M  END
> <SMILES>
CC1=C(C)C=C2N(C[C@H](O)[C@H](O)[C@H](O)CO)C3=NC(=O)NC(=O)C3=NC2=C1

$$$$

  CDK     01261921162D

 12 11  0  0  1  0  0  0  0  0999 V2000
    7.7942    1.5000    0.0000 N   0  0  0  0  0  0  0  0  0  0  0  0
    7.7942   -0.0000    0.0000 C   0  0  1  0  0  0  0  0  0  0  0  0
    6.4952   -0.7500    0.0000 C   0  0  0  0  0  0  0  0  0  0  0  0
    5.1962   -0.0000    0.0000 C   0  0  0  0  0  0  0  0  0  0  0  0
    3.8971   -0.7500    0.0000 C   0  0  0  0  0  0  0  0  0  0  0  0
    2.5981   -0.0000    0.0000 N   0  0  0  0  0  0  0  0  0  0  0  0
    1.2990   -0.7500    0.0000 C   0  0  0  0  0  0  0  0  0  0  0  0
    0.0000    0.0000    0.0000 N   0  0  0  0  0  0  0  0  0  0  0  0
    1.2990   -2.2500    0.0000 O   0  0  0  0  0  0  0  0  0  0  0  0
    9.0933   -0.7500    0.0000 C   0  0  0  0  0  0  0  0  0  0  0  0
   10.3923   -0.0000    0.0000 O   0  0  0  0  0  0  0  0  0  0  0  0
    9.0933   -2.2500    0.0000 O   0  0  0  0  0  0  0  0  0  0  0  0
  2  1  1  6  0  0  0 
  2  3  1  0  0  0  0 
  3  4  1  0  0  0  0 
  4  5  1  0  0  0  0 
  5  6  1  0  0  0  0 
  6  7  1  0  0  0  0 
  7  8  1  0  0  0  0 
  7  9  2  0  0  0  0 
  2 10  1  0  0  0  0 
 10 11  1  0  0  0  0 
 10 12  2  0  0  0  0 
M  END
> <SMILES>
N[C@@H](CCCNC(N)=O)C(O)=O

$$$$

  CDK     01261921162D

 32 34  0  0  1  0  0  0  0  0999 V2000
   -3.7702    1.7080    0.0000 N   0  0  0  0  0  0  0  0  0  0  0  0
   -2.4700    0.9600    0.0000 C   0  0  0  0  0  0  0  0  0  0  0  0
   -2.4700   -0.5100    0.0000 N   0  0  0  0  0  0  0  0  0  0  0  0
   -1.1800   -1.2600    0.0000 C   0  0  0  0  0  0  0  0  0  0  0  0
   -1.1825   -2.7600    0.0000 O   0  0  0  0  0  0  0  0  0  0  0  0
    0.1200   -0.5100    0.0000 C   0  0  0  0  0  0  0  0  0  0  0  0
    1.3500   -1.2600    0.0000 N   0  0  0  0  0  0  0  0  0  0  0  0
    2.6500   -0.5100    0.0000 C   0  0  0  0  0  0  0  0  0  0  0  0
    3.9489   -1.2602    0.0000 C   0  0  0  0  0  0  0  0  0  0  0  0
    5.2481   -0.5104    0.0000 N   0  0  0  0  0  0  0  0  0  0  0  0
    6.5470   -1.2606    0.0000 C   0  0  0  0  0  0  0  0  0  0  0  0
    7.8470   -0.5106    0.0000 C   0  0  0  0  0  0  0  0  0  0  0  0
    9.1470   -1.2606    0.0000 C   0  0  0  0  0  0  0  0  0  0  0  0
    9.1470   -2.7606    0.0000 C   0  0  0  0  0  0  0  0  0  0  0  0
    7.8470   -3.5106    0.0000 C   0  0  0  0  0  0  0  0  0  0  0  0
    6.5470   -2.7606    0.0000 C   0  0  0  0  0  0  0  0  0  0  0  0
   10.4459   -3.5108    0.0000 C   0  0  0  0  0  0  0  0  0  0  0  0
   10.4457   -5.0108    0.0000 O   0  0  0  0  0  0  0  0  0  0  0  0
   11.7451   -2.7610    0.0000 N   0  0  0  0  0  0  0  0  0  0  0  0
   13.0440   -3.5112    0.0000 C   0  0  1  0  0  0  0  0  0  0  0  0
   14.3431   -2.7615    0.0000 C   0  0  0  0  0  0  0  0  0  0  0  0
   15.6421   -3.5117    0.0000 C   0  0  0  0  0  0  0  0  0  0  0  0
   16.9412   -2.7619    0.0000 C   0  0  0  0  0  0  0  0  0  0  0  0
   18.2401   -3.5121    0.0000 O   0  0  0  0  0  0  0  0  0  0  0  0
   16.9415   -1.2619    0.0000 O   0  0  0  0  0  0  0  0  0  0  0  0
   13.0437   -5.0112    0.0000 C   0  0  0  0  0  0  0  0  0  0  0  0
   14.3427   -5.7615    0.0000 O   0  0  0  0  0  0  0  0  0  0  0  0
   11.7446   -5.7610    0.0000 O   0  0  0  0  0  0  0  0  0  0  0  0
    2.6500    0.9600    0.0000 C   0  0  0  0  0  0  0  0  0  0  0  0
    1.3500    1.7100    0.0000 N   0  0  0  0  0  0  0  0  0  0  0  0
    0.1200    0.9600    0.0000 C   0  0  0  0  0  0  0  0  0  0  0  0
   -1.1800    1.7100    0.0000 N   0  0  0  0  0  0  0  0  0  0  0  0
  1  2  1  0  0  0  0 
  2  3  2  0  0  0  0 
  3  4  1  0  0  0  0 
  4  5  2  0  0  0  0 
  4  6  1  0  0  0  0 
  6  7  2  0  0  0  0 
  7  8  1  0  0  0  0 
  8  9  1  0  0  0  0 
  9 10  1  0  0  0  0 
 10 11  1  0  0  0  0 
 11 12  2  0  0  0  0 
 12 13  1  0  0  0  0 
 13 14  2  0  0  0  0 
 14 15  1  0  0  0  0 
 15 16  2  0  0  0  0 
 11 16  1  0  0  0  0 
 14 17  1  0  0  0  0 
 17 18  2  0  0  0  0 
 17 19  1  0  0  0  0 
 20 19  1  1  0  0  0 
 20 21  1  0  0  0  0 
 21 22  1  0  0  0  0 
 22 23  1  0  0  0  0 
 23 24  1  0  0  0  0 
 23 25  2  0  0  0  0 
 20 26  1  0  0  0  0 
 26 27  1  0  0  0  0 
 26 28  2  0  0  0  0 
  8 29  2  0  0  0  0 
 29 30  1  0  0  0  0 
 30 31  2  0  0  0  0 
  6 31  1  0  0  0  0 
 31 32  1  0  0  0  0 
  2 32  1  0  0  0  0 
M  END
> <SMILES>
NC1=NC(=O)C2=NC(CNC3=CC=C(C=C3)C(=O)N[C@@H](CCC(O)=O)C(O)=O)=CN=C2N1

$$$$

  CDK     01261921162D

 21 21  0  0  1  0  0  0  0  0999 V2000
   -4.2212    7.6329    0.0000 C   0  0  0  0  0  0  0  0  0  0  0  0
   -4.2212    6.1329    0.0000 O   0  0  0  0  0  0  0  0  0  0  0  0
   -2.9221    5.3829    0.0000 C   0  0  0  0  0  0  0  0  0  0  0  0
   -1.6231    6.1329    0.0000 O   0  0  0  0  0  0  0  0  0  0  0  0
   -2.9221    3.8829    0.0000 C   0  0  2  0  0  0  0  0  0  0  0  0
   -4.2212    3.1329    0.0000 C   0  0  0  0  0  0  0  0  0  0  0  0
   -5.5202    3.8829    0.0000 C   0  0  0  0  0  0  0  0  0  0  0  0
   -6.8197    3.1321    0.0000 C   0  0  0  0  0  0  0  0  0  0  0  0
   -8.1187    3.8821    0.0000 C   0  0  0  0  0  0  0  0  0  0  0  0
   -8.1183    5.3829    0.0000 C   0  0  0  0  0  0  0  0  0  0  0  0
   -6.8187    6.1337    0.0000 C   0  0  0  0  0  0  0  0  0  0  0  0
   -5.5197    5.3837    0.0000 C   0  0  0  0  0  0  0  0  0  0  0  0
   -1.6231    3.1329    0.0000 N   0  0  0  0  0  0  0  0  0  0  0  0
   -0.3240    3.8829    0.0000 C   0  0  0  0  0  0  0  0  0  0  0  0
   -0.3240    5.3829    0.0000 O   0  0  0  0  0  0  0  0  0  0  0  0
    0.9750    3.1329    0.0000 C   0  0  1  0  0  0  0  0  0  0  0  0
    0.9750    1.6329    0.0000 N   0  0  0  0  0  0  0  0  0  0  0  0
    2.2740    3.8829    0.0000 C   0  0  0  0  0  0  0  0  0  0  0  0
    3.5731    3.1329    0.0000 C   0  0  0  0  0  0  0  0  0  0  0  0
    4.8721    3.8829    0.0000 O   0  0  0  0  0  0  0  0  0  0  0  0
    3.5731    1.6329    0.0000 O   0  0  0  0  0  0  0  0  0  0  0  0
  1  2  1  0  0  0  0 
  2  3  1  0  0  0  0 
  3  4  2  0  0  0  0 
  3  5  1  0  0  0  0 
  5  6  1  0  0  0  0 
  6  7  1  0  0  0  0 
  7  8  2  0  0  0  0 
  8  9  1  0  0  0  0 
  9 10  2  0  0  0  0 
 10 11  1  0  0  0  0 
 11 12  2  0  0  0  0 
  7 12  1  0  0  0  0 
  5 13  1  1  0  0  0 
 13 14  1  0  0  0  0 
 14 15  2  0  0  0  0 
 14 16  1  0  0  0  0 
 16 17  1  6  0  0  0 
 16 18  1  0  0  0  0 
 18 19  1  0  0  0  0 
 19 20  1  0  0  0  0 
 19 21  2  0  0  0  0 
M  END
> <SMILES>
COC(=O)[C@H](CC1=CC=CC=C1)NC(=O)[C@@H](N)CC(O)=O

$$$$

  CDK     01261921162D

 35 38  0  0  1  0  0  0  0  0999 V2000
   -0.6904    2.6183    0.0000 H   0  0  0  0  0  0  0  0  0  0  0  0
   -0.3000    1.1700    0.0000 C   0  0  1  0  0  0  0  0  0  0  0  0
    0.9900    1.9200    0.0000 S   0  0  0  0  0  0  0  0  0  0  0  0
    2.3100    1.1700    0.0000 C   0  0  0  0  0  0  0  0  0  0  0  0
    2.3100   -0.3500    0.0000 C   0  0  0  0  0  0  0  0  0  0  0  0
    3.6086   -1.1008    0.0000 C   0  0  0  0  0  0  0  0  0  0  0  0
    4.9081   -0.3516    0.0000 S   0  0  0  0  0  0  0  0  0  0  0  0
    6.2067   -1.1023    0.0000 C   0  0  0  0  0  0  0  0  0  0  0  0
    7.5772   -0.4876    0.0000 N   0  0  0  0  0  0  0  0  0  0  0  0
    8.5722   -1.6128    0.0000 N   0  0  0  0  0  0  0  0  0  0  0  0
    7.8230   -2.9038    0.0000 N   0  0  0  0  0  0  0  0  0  0  0  0
    6.3568   -2.5874    0.0000 N   0  0  0  0  0  0  0  0  0  0  0  0
    5.2385   -3.5872    0.0000 C   0  0  0  0  0  0  0  0  0  0  0  0
    5.5452   -5.0555    0.0000 C   0  0  0  0  0  0  0  0  0  0  0  0
    6.9702   -5.5240    0.0000 N   0  0  0  0  0  0  0  0  0  0  0  0
    7.2769   -6.9923    0.0000 C   0  0  0  0  0  0  0  0  0  0  0  0
    8.0884   -4.5243    0.0000 C   0  0  0  0  0  0  0  0  0  0  0  0
    0.9900   -1.1100    0.0000 C   0  0  0  0  0  0  0  0  0  0  0  0
   -0.3000   -0.3300    0.0000 N   0  0  0  0  0  0  0  0  0  0  0  0
   -1.8000   -0.3300    0.0000 C   0  0  0  0  0  0  0  0  0  0  0  0
   -2.8607   -1.3907    0.0000 O   0  0  0  0  0  0  0  0  0  0  0  0
   -1.8000    1.1700    0.0000 C   0  0  1  0  0  0  0  0  0  0  0  0
   -2.8607    2.2307    0.0000 N   0  0  0  0  0  0  0  0  0  0  0  0
   -4.3095    1.8424    0.0000 C   0  0  0  0  0  0  0  0  0  0  0  0
   -4.6978    0.3935    0.0000 O   0  0  0  0  0  0  0  0  0  0  0  0
   -5.3702    2.9031    0.0000 C   0  0  0  0  0  0  0  0  0  0  0  0
   -6.8191    2.5149    0.0000 C   0  0  0  0  0  0  0  0  0  0  0  0
   -7.9795    3.4537    0.0000 C   0  0  0  0  0  0  0  0  0  0  0  0
   -9.2444    2.6436    0.0000 S   0  0  0  0  0  0  0  0  0  0  0  0
   -8.8478    1.1948    0.0000 C   0  0  0  0  0  0  0  0  0  0  0  0
   -9.7894    0.0272    0.0000 N   0  0  0  0  0  0  0  0  0  0  0  0
   -7.3573    1.1147    0.0000 N   0  0  0  0  0  0  0  0  0  0  0  0
    0.9739   -2.6099    0.0000 C   0  0  0  0  0  0  0  0  0  0  0  0
    2.2649   -3.3738    0.0000 O   0  0  0  0  0  0  0  0  0  0  0  0
   -0.3331   -3.3460    0.0000 O   0  0  0  0  0  0  0  0  0  0  0  0
  2  1  1  6  0  0  0 
  2  3  1  0  0  0  0 
  3  4  1  0  0  0  0 
  4  5  1  0  0  0  0 
  5  6  1  0  0  0  0 
  6  7  1  0  0  0  0 
  7  8  1  0  0  0  0 
  8  9  2  0  0  0  0 
  9 10  1  0  0  0  0 
 10 11  2  0  0  0  0 
 11 12  1  0  0  0  0 
  8 12  1  0  0  0  0 
 12 13  1  0  0  0  0 
 13 14  1  0  0  0  0 
 14 15  1  0  0  0  0 
 15 16  1  0  0  0  0 
 15 17  1  0  0  0  0 
  5 18  2  0  0  0  0 
 18 19  1  0  0  0  0 
  2 19  1  0  0  0  0 
 19 20  1  0  0  0  0 
 20 21  2  0  0  0  0 
 20 22  1  0  0  0  0 
  2 22  1  0  0  0  0 
 22 23  1  1  0  0  0 
 23 24  1  0  0  0  0 
 24 25  2  0  0  0  0 
 24 26  1  0  0  0  0 
 26 27  1  0  0  0  0 
 27 28  2  0  0  0  0 
 28 29  1  0  0  0  0 
 29 30  1  0  0  0  0 
 30 31  1  0  0  0  0 
 30 32  2  0  0  0  0 
 27 32  1  0  0  0  0 
 18 33  1  0  0  0  0 
 33 34  1  0  0  0  0 
 33 35  2  0  0  0  0 
M  END
> <SMILES>
[H][C@]12SCC(CSC3=NN=NN3CCN(C)C)=C(N1C(=O)[C@H]2NC(=O)CC1=CSC(N)=N1)C(O)=O

$$$$

  CDK     01261921162D

 36 37  0  0  1  0  0  0  0  0999 V2000
    3.6503    1.3598    0.0000 H   0  0  0  0  0  0  0  0  0  0  0  0
    3.6504    2.8598    0.0000 C   0  0  2  0  0  0  0  0  0  0  0  0
    5.1276    2.5992    0.0000 C   0  0  0  0  0  0  0  0  0  0  0  0
    2.1732    2.5995    0.0000 C   0  0  0  0  0  0  0  0  0  0  0  0
    1.6600    1.1900    0.0000 N   0  0  0  0  0  0  0  0  0  0  0  0
    2.5100   -0.0300    0.0000 C   0  0  0  0  0  0  0  0  0  0  0  0
    1.6000   -1.2200    0.0000 N   0  0  0  0  0  0  0  0  0  0  0  0
    0.1800   -0.7400    0.0000 C   0  0  0  0  0  0  0  0  0  0  0  0
   -1.1600   -1.4100    0.0000 C   0  0  0  0  0  0  0  0  0  0  0  0
   -1.2158   -2.9090    0.0000 N   0  0  0  0  0  0  0  0  0  0  0  0
   -2.4000   -0.6700    0.0000 N   0  0  0  0  0  0  0  0  0  0  0  0
   -2.3600    0.8500    0.0000 C   0  0  0  0  0  0  0  0  0  0  0  0
   -1.1000    1.5500    0.0000 N   0  0  0  0  0  0  0  0  0  0  0  0
    0.1800    0.7900    0.0000 C   0  0  0  0  0  0  0  0  0  0  0  0
    4.1635    4.2693    0.0000 O   0  0  0  0  0  0  0  0  0  0  0  0
    5.6408    4.5297    0.0000 C   0  0  0  0  0  0  0  0  0  0  0  0
    6.1539    5.9392    0.0000 P   0  0  0  0  0  0  0  0  0  0  0  0
    6.1541    7.4392    0.0000 O   0  0  0  0  0  0  0  0  0  0  0  0
    7.6312    6.1995    0.0000 O   0  0  0  0  0  0  0  0  0  0  0  0
    8.1443    7.6090    0.0000 C   0  0  0  0  0  0  0  0  0  0  0  0
    9.6216    7.8693    0.0000 O   0  0  0  0  0  0  0  0  0  0  0  0
   10.1347    9.2788    0.0000 C   0  0  0  0  0  0  0  0  0  0  0  0
    9.1706   10.4280    0.0000 O   0  0  0  0  0  0  0  0  0  0  0  0
   11.6120    9.5392    0.0000 O   0  0  0  0  0  0  0  0  0  0  0  0
   12.1251   10.9487    0.0000 C   0  0  0  0  0  0  0  0  0  0  0  0
   13.6023   11.2090    0.0000 C   0  0  0  0  0  0  0  0  0  0  0  0
   11.1610   12.0978    0.0000 C   0  0  0  0  0  0  0  0  0  0  0  0
    4.6768    6.1998    0.0000 O   0  0  0  0  0  0  0  0  0  0  0  0
    4.1638    7.6093    0.0000 C   0  0  0  0  0  0  0  0  0  0  0  0
    5.1281    8.7583    0.0000 O   0  0  0  0  0  0  0  0  0  0  0  0
    4.6152   10.1679    0.0000 C   0  0  0  0  0  0  0  0  0  0  0  0
    3.1380   10.4285    0.0000 O   0  0  0  0  0  0  0  0  0  0  0  0
    5.5795   11.3169    0.0000 O   0  0  0  0  0  0  0  0  0  0  0  0
    5.0666   12.7265    0.0000 C   0  0  0  0  0  0  0  0  0  0  0  0
    6.0309   13.8755    0.0000 C   0  0  0  0  0  0  0  0  0  0  0  0
    3.5894   12.9871    0.0000 C   0  0  0  0  0  0  0  0  0  0  0  0
  2  1  1  1  0  0  0 
  2  3  1  6  0  0  0 
  2  4  1  0  0  0  0 
  4  5  1  0  0  0  0 
  5  6  1  0  0  0  0 
  6  7  2  0  0  0  0 
  7  8  1  0  0  0  0 
  8  9  2  0  0  0  0 
  9 10  1  0  0  0  0 
  9 11  1  0  0  0  0 
 11 12  2  0  0  0  0 
 12 13  1  0  0  0  0 
 13 14  2  0  0  0  0 
  5 14  1  0  0  0  0 
  8 14  1  0  0  0  0 
  2 15  1  0  0  0  0 
 15 16  1  0  0  0  0 
 16 17  1  0  0  0  0 
 17 18  2  0  0  0  0 
 17 19  1  0  0  0  0 
 19 20  1  0  0  0  0 
 20 21  1  0  0  0  0 
 21 22  1  0  0  0  0 
 22 23  2  0  0  0  0 
 22 24  1  0  0  0  0 
 24 25  1  0  0  0  0 
 25 26  1  0  0  0  0 
 25 27  1  0  0  0  0 
 17 28  1  0  0  0  0 
 28 29  1  0  0  0  0 
 29 30  1  0  0  0  0 
 30 31  1  0  0  0  0 
 31 32  2  0  0  0  0 
 31 33  1  0  0  0  0 
 33 34  1  0  0  0  0 
 34 35  1  0  0  0  0 
 34 36  1  0  0  0  0 
M  END
> <SMILES>
[H][C@@](C)(CN1C=NC2=C(N)N=CN=C12)OCP(=O)(OCOC(=O)OC(C)C)OCOC(=O)OC(C)C

$$$$

  CDK     01261921162D

 16 17  0  0  0  0  0  0  0  0999 V2000
   -6.2070    1.5006    0.0000 C   0  0  0  0  0  0  0  0  0  0  0  0
   -4.9081    0.7504    0.0000 C   0  0  0  0  0  0  0  0  0  0  0  0
   -3.6089    1.5002    0.0000 O   0  0  0  0  0  0  0  0  0  0  0  0
   -2.3100    0.7500    0.0000 C   0  0  0  0  0  0  0  0  0  0  0  0
   -1.0100    1.5000    0.0000 C   0  0  0  0  0  0  0  0  0  0  0  0
    0.2900    0.7500    0.0000 C   0  0  0  0  0  0  0  0  0  0  0  0
    0.2900   -0.7500    0.0000 C   0  0  0  0  0  0  0  0  0  0  0  0
   -1.0100   -1.5000    0.0000 C   0  0  0  0  0  0  0  0  0  0  0  0
   -2.3100   -0.7500    0.0000 C   0  0  0  0  0  0  0  0  0  0  0  0
    1.7200   -1.2100    0.0000 N   0  0  0  0  0  0  0  0  0  0  0  0
    2.6000    0.0000    0.0000 C   0  0  0  0  0  0  0  0  0  0  0  0
    1.7200    1.2100    0.0000 S   0  0  0  0  0  0  0  0  0  0  0  0
    4.1000   -0.0000    0.0000 S   0  0  0  0  0  0  0  0  0  0  0  0
    4.8500   -1.2990    0.0000 N   0  0  0  0  0  0  0  0  0  0  0  0
    5.5095    0.5130    0.0000 O   0  0  0  0  0  0  0  0  0  0  0  0
    3.8395    1.4772    0.0000 O   0  0  0  0  0  0  0  0  0  0  0  0
  1  2  1  0  0  0  0 
  2  3  1  0  0  0  0 
  3  4  1  0  0  0  0 
  4  5  2  0  0  0  0 
  5  6  1  0  0  0  0 
  6  7  2  0  0  0  0 
  7  8  1  0  0  0  0 
  8  9  2  0  0  0  0 
  4  9  1  0  0  0  0 
  7 10  1  0  0  0  0 
 10 11  2  0  0  0  0 
 11 12  1  0  0  0  0 
  6 12  1  0  0  0  0 
 11 13  1  0  0  0  0 
 13 14  1  0  0  0  0 
 13 15  2  0  0  0  0 
 13 16  2  0  0  0  0 
M  END
> <SMILES>
CCOC1=CC2=C(C=C1)N=C(S2)S(N)(=O)=O

$$$$

  CDK     01261921162D

 10  9  0  0  0  0  0  0  0  0999 V2000
    0.0000    0.0000    0.0000 C   0  0  0  0  0  0  0  0  0  0  0  0
    1.2990   -0.7500    0.0000 C   0  0  0  0  0  0  0  0  0  0  0  0
    2.5981   -0.0000    0.0000 C   0  0  0  0  0  0  0  0  0  0  0  0
    3.8971   -0.7500    0.0000 C   0  0  0  0  0  0  0  0  0  0  0  0
    5.1962   -0.0000    0.0000 C   0  0  0  0  0  0  0  0  0  0  0  0
    6.4952   -0.7500    0.0000 C   0  0  0  0  0  0  0  0  0  0  0  0
    7.7942   -0.0000    0.0000 C   0  0  0  0  0  0  0  0  0  0  0  0
    3.8971   -2.2500    0.0000 C   0  0  0  0  0  0  0  0  0  0  0  0
    5.1962   -3.0000    0.0000 O   0  0  0  0  0  0  0  0  0  0  0  0
    2.5981   -3.0000    0.0000 O   0  0  0  0  0  0  0  0  0  0  0  0
  1  2  1  0  0  0  0 
  2  3  1  0  0  0  0 
  3  4  1  0  0  0  0 
  4  5  1  0  0  0  0 
  5  6  1  0  0  0  0 
  6  7  1  0  0  0  0 
  4  8  1  0  0  0  0 
  8  9  1  0  0  0  0 
  8 10  2  0  0  0  0 
M  END
> <SMILES>
CCCC(CCC)C(O)=O

$$$$

  CDK     01261921162D

 11 11  0  0  0  0  0  0  0  0999 V2000
    2.5989    1.5002    0.0000 C   0  0  0  0  0  0  0  0  0  0  0  0
    1.3000    0.7500    0.0000 C   0  0  0  0  0  0  0  0  0  0  0  0
    1.3002   -0.7500    0.0000 O   0  0  0  0  0  0  0  0  0  0  0  0
    0.0008    1.4998    0.0000 N   0  0  0  0  0  0  0  0  0  0  0  0
   -1.2981    0.7496    0.0000 C   0  0  0  0  0  0  0  0  0  0  0  0
   -1.2981   -0.7504    0.0000 C   0  0  0  0  0  0  0  0  0  0  0  0
   -2.5981   -1.5004    0.0000 C   0  0  0  0  0  0  0  0  0  0  0  0
   -3.8981   -0.7504    0.0000 C   0  0  0  0  0  0  0  0  0  0  0  0
   -5.1970   -1.5006    0.0000 O   0  0  0  0  0  0  0  0  0  0  0  0
   -3.8981    0.7496    0.0000 C   0  0  0  0  0  0  0  0  0  0  0  0
   -2.5981    1.4996    0.0000 C   0  0  0  0  0  0  0  0  0  0  0  0
  1  2  1  0  0  0  0 
  2  3  2  0  0  0  0 
  2  4  1  0  0  0  0 
  4  5  1  0  0  0  0 
  5  6  2  0  0  0  0 
  6  7  1  0  0  0  0 
  7  8  2  0  0  0  0 
  8  9  1  0  0  0  0 
  8 10  1  0  0  0  0 
 10 11  2  0  0  0  0 
  5 11  1  0  0  0  0 
M  END
> <SMILES>
CC(=O)NC1=CC=C(O)C=C1

$$$$

  CDK     01261921162D

 37 40  0  0  1  0  0  0  0  0999 V2000
   -0.7425    2.4519    0.0000 H   0  0  0  0  0  0  0  0  0  0  0  0
   -0.5100    0.9700    0.0000 C   0  0  1  0  0  0  0  0  0  0  0  0
    0.9200    1.4300    0.0000 S   0  0  0  0  0  0  0  0  0  0  0  0
    1.8000    0.2200    0.0000 C   0  0  0  0  0  0  0  0  0  0  0  0
    2.9146   -0.7839    0.0000 C   0  0  0  0  0  0  0  0  0  0  0  0
    2.9146    1.2239    0.0000 C   0  0  0  0  0  0  0  0  0  0  0  0
    0.9200   -0.9900    0.0000 C   0  0  1  0  0  0  0  0  0  0  0  0
   -0.5100   -0.5300    0.0000 N   0  0  0  0  0  0  0  0  0  0  0  0
   -2.0100   -0.5300    0.0000 C   0  0  0  0  0  0  0  0  0  0  0  0
   -3.0707   -1.5907    0.0000 O   0  0  0  0  0  0  0  0  0  0  0  0
   -2.0100    0.9700    0.0000 C   0  0  1  0  0  0  0  0  0  0  0  0
   -3.0707    2.0307    0.0000 N   0  0  0  0  0  0  0  0  0  0  0  0
   -4.5195    1.6424    0.0000 C   0  0  0  0  0  0  0  0  0  0  0  0
   -4.9078    0.1935    0.0000 O   0  0  0  0  0  0  0  0  0  0  0  0
   -5.5802    2.7031    0.0000 C   0  0  2  0  0  0  0  0  0  0  0  0
   -7.0291    2.3149    0.0000 N   0  0  0  0  0  0  0  0  0  0  0  0
   -8.0898    3.3755    0.0000 C   0  0  0  0  0  0  0  0  0  0  0  0
   -7.7015    4.8244    0.0000 O   0  0  0  0  0  0  0  0  0  0  0  0
   -9.5386    2.9873    0.0000 N   0  0  0  0  0  0  0  0  0  0  0  0
   -9.9266    1.5375    0.0000 C   0  0  0  0  0  0  0  0  0  0  0  0
  -11.3755    1.1492    0.0000 C   0  0  0  0  0  0  0  0  0  0  0  0
  -12.4364    2.2108    0.0000 N   0  0  0  0  0  0  0  0  0  0  0  0
  -13.8853    1.8226    0.0000 C   0  0  0  0  0  0  0  0  0  0  0  0
  -14.9460    2.8833    0.0000 C   0  0  0  0  0  0  0  0  0  0  0  0
  -12.0484    3.6607    0.0000 C   0  0  0  0  0  0  0  0  0  0  0  0
  -13.1093    4.7211    0.0000 O   0  0  0  0  0  0  0  0  0  0  0  0
  -10.5996    4.0489    0.0000 C   0  0  0  0  0  0  0  0  0  0  0  0
  -10.2111    5.4977    0.0000 O   0  0  0  0  0  0  0  0  0  0  0  0
   -5.1920    4.1520    0.0000 C   0  0  0  0  0  0  0  0  0  0  0  0
   -6.2536    5.2129    0.0000 C   0  0  0  0  0  0  0  0  0  0  0  0
   -5.8653    6.6618    0.0000 C   0  0  0  0  0  0  0  0  0  0  0  0
   -4.4155    7.0498    0.0000 C   0  0  0  0  0  0  0  0  0  0  0  0
   -3.3539    5.9888    0.0000 C   0  0  0  0  0  0  0  0  0  0  0  0
   -3.7422    4.5400    0.0000 C   0  0  0  0  0  0  0  0  0  0  0  0
    1.3853   -2.4160    0.0000 C   0  0  0  0  0  0  0  0  0  0  0  0
    2.8529   -2.7261    0.0000 O   0  0  0  0  0  0  0  0  0  0  0  0
    0.3830   -3.5320    0.0000 O   0  0  0  0  0  0  0  0  0  0  0  0
  2  1  1  6  0  0  0 
  2  3  1  0  0  0  0 
  3  4  1  0  0  0  0 
  4  5  1  0  0  0  0 
  4  6  1  0  0  0  0 
  4  7  1  0  0  0  0 
  7  8  1  0  0  0  0 
  2  8  1  0  0  0  0 
  8  9  1  0  0  0  0 
  9 10  2  0  0  0  0 
  9 11  1  0  0  0  0 
  2 11  1  0  0  0  0 
 11 12  1  1  0  0  0 
 12 13  1  0  0  0  0 
 13 14  2  0  0  0  0 
 13 15  1  0  0  0  0 
 15 16  1  6  0  0  0 
 16 17  1  0  0  0  0 
 17 18  2  0  0  0  0 
 17 19  1  0  0  0  0 
 19 20  1  0  0  0  0 
 20 21  1  0  0  0  0 
 21 22  1  0  0  0  0 
 22 23  1  0  0  0  0 
 23 24  1  0  0  0  0 
 22 25  1  0  0  0  0 
 25 26  2  0  0  0  0 
 25 27  1  0  0  0  0 
 19 27  1  0  0  0  0 
 27 28  2  0  0  0  0 
 15 29  1  0  0  0  0 
 29 30  2  0  0  0  0 
 30 31  1  0  0  0  0 
 31 32  2  0  0  0  0 
 32 33  1  0  0  0  0 
 33 34  2  0  0  0  0 
 29 34  1  0  0  0  0 
  7 35  1  6  0  0  0 
 35 36  1  0  0  0  0 
 35 37  2  0  0  0  0 
M  END
> <SMILES>
[H][C@]12SC(C)(C)[C@@H](N1C(=O)[C@H]2NC(=O)[C@H](NC(=O)N1CCN(CC)C(=O)C1=O)C1=CC=CC=C1)C(O)=O

$$$$

  CDK     01261921162D

 26 29  0  0  0  0  0  0  0  0999 V2000
   -5.1971   -5.2512    0.0000 C   0  0  0  0  0  0  0  0  0  0  0  0
   -5.1971   -3.7512    0.0000 C   0  0  0  0  0  0  0  0  0  0  0  0
   -3.8982   -3.0010    0.0000 C   0  0  0  0  0  0  0  0  0  0  0  0
   -3.8989   -1.5002    0.0000 N   0  0  0  0  0  0  0  0  0  0  0  0
   -5.1986   -0.7496    0.0000 C   0  0  0  0  0  0  0  0  0  0  0  0
   -6.4975   -1.4998    0.0000 C   0  0  0  0  0  0  0  0  0  0  0  0
   -6.4968   -3.0006    0.0000 N   0  0  0  0  0  0  0  0  0  0  0  0
   -2.6000   -0.7500    0.0000 C   0  0  0  0  0  0  0  0  0  0  0  0
   -2.6000    0.7500    0.0000 C   0  0  0  0  0  0  0  0  0  0  0  0
   -3.8989    1.5002    0.0000 F   0  0  0  0  0  0  0  0  0  0  0  0
   -1.3000    1.5000    0.0000 C   0  0  0  0  0  0  0  0  0  0  0  0
   -1.3000    3.0000    0.0000 C   0  0  0  0  0  0  0  0  0  0  0  0
   -0.0000    0.7500    0.0000 C   0  0  0  0  0  0  0  0  0  0  0  0
    1.3000    1.5000    0.0000 C   0  0  0  0  0  0  0  0  0  0  0  0
    1.3000    3.0000    0.0000 O   0  0  0  0  0  0  0  0  0  0  0  0
    2.6000    0.7500    0.0000 C   0  0  0  0  0  0  0  0  0  0  0  0
    2.6000   -0.7500    0.0000 C   0  0  0  0  0  0  0  0  0  0  0  0
    1.3000   -1.5000    0.0000 N   0  0  0  0  0  0  0  0  0  0  0  0
    1.3000   -3.0000    0.0000 C   0  0  0  0  0  0  0  0  0  0  0  0
    2.0506   -4.2996    0.0000 C   0  0  0  0  0  0  0  0  0  0  0  0
    0.5498   -4.2989    0.0000 C   0  0  0  0  0  0  0  0  0  0  0  0
   -0.0000   -0.7500    0.0000 C   0  0  0  0  0  0  0  0  0  0  0  0
   -1.3000   -1.5000    0.0000 C   0  0  0  0  0  0  0  0  0  0  0  0
    3.8989    1.5002    0.0000 C   0  0  0  0  0  0  0  0  0  0  0  0
    5.1981    0.7504    0.0000 O   0  0  0  0  0  0  0  0  0  0  0  0
    3.8987    3.0002    0.0000 O   0  0  0  0  0  0  0  0  0  0  0  0
  1  2  1  0  0  0  0 
  2  3  1  0  0  0  0 
  3  4  1  0  0  0  0 
  4  5  1  0  0  0  0 
  5  6  1  0  0  0  0 
  6  7  1  0  0  0  0 
  2  7  1  0  0  0  0 
  4  8  1  0  0  0  0 
  8  9  2  0  0  0  0 
  9 10  1  0  0  0  0 
  9 11  1  0  0  0  0 
 11 12  1  0  0  0  0 
 11 13  2  0  0  0  0 
 13 14  1  0  0  0  0 
 14 15  2  0  0  0  0 
 14 16  1  0  0  0  0 
 16 17  2  0  0  0  0 
 17 18  1  0  0  0  0 
 18 19  1  0  0  0  0 
 19 20  1  0  0  0  0 
 20 21  1  0  0  0  0 
 19 21  1  0  0  0  0 
 18 22  1  0  0  0  0 
 13 22  1  0  0  0  0 
 22 23  2  0  0  0  0 
  8 23  1  0  0  0  0 
 16 24  1  0  0  0  0 
 24 25  1  0  0  0  0 
 24 26  2  0  0  0  0 
M  END
> <SMILES>
CC1CN(CCN1)C1=C(F)C(C)=C2C(=O)C(=CN(C3CC3)C2=C1)C(O)=O

$$$$

  CDK     01261921162D

 20 21  0  0  1  0  0  0  0  0999 V2000
    4.8461    3.6600    0.0000 O   0  0  0  0  0  0  0  0  0  0  0  0
    3.9705    2.4421    0.0000 C   0  0  0  0  0  0  0  0  0  0  0  0
    2.4779    2.5915    0.0000 C   0  0  1  0  0  0  0  0  0  0  0  0
    1.4822    1.4669    0.0000 O   0  0  0  0  0  0  0  0  0  0  0  0
    0.1121    2.0825    0.0000 C   0  0  2  0  0  0  0  0  0  0  0  0
    0.2631    3.5674    0.0000 C   0  0  0  0  0  0  0  0  0  0  0  0
    1.7295    3.8830    0.0000 C   0  0  2  0  0  0  0  0  0  0  0  0
    2.3368    5.2545    0.0000 O   0  0  0  0  0  0  0  0  0  0  0  0
   -1.1870    1.3325    0.0000 N   0  0  0  0  0  0  0  0  0  0  0  0
   -2.4865    2.0833    0.0000 C   0  0  0  0  0  0  0  0  0  0  0  0
   -3.7855    1.3333    0.0000 C   0  0  0  0  0  0  0  0  0  0  0  0
   -3.7851   -0.1675    0.0000 C   0  0  0  0  0  0  0  0  0  0  0  0
   -5.0841   -0.9175    0.0000 O   0  0  0  0  0  0  0  0  0  0  0  0
   -2.4855   -0.9184    0.0000 N   0  0  0  0  0  0  0  0  0  0  0  0
   -1.1865   -0.1684    0.0000 C   0  0  0  0  0  0  0  0  0  0  0  0
    0.1127   -0.9182    0.0000 O   0  0  0  0  0  0  0  0  0  0  0  0
   -5.0847    2.0831    0.0000 C   0  0  0  0  0  0  0  0  0  0  0  0
   -6.3836    1.3329    0.0000 F   0  0  0  0  0  0  0  0  0  0  0  0
   -4.1207    3.2323    0.0000 F   0  0  0  0  0  0  0  0  0  0  0  0
   -6.0491    3.2320    0.0000 F   0  0  0  0  0  0  0  0  0  0  0  0
  1  2  1  0  0  0  0 
  3  2  1  1  0  0  0 
  3  4  1  0  0  0  0 
  4  5  1  0  0  0  0 
  5  6  1  0  0  0  0 
  6  7  1  0  0  0  0 
  3  7  1  0  0  0  0 
  7  8  1  6  0  0  0 
  5  9  1  1  0  0  0 
  9 10  1  0  0  0  0 
 10 11  2  0  0  0  0 
 11 12  1  0  0  0  0 
 12 13  2  0  0  0  0 
 12 14  1  0  0  0  0 
 14 15  1  0  0  0  0 
  9 15  1  0  0  0  0 
 15 16  2  0  0  0  0 
 11 17  1  0  0  0  0 
 17 18  1  0  0  0  0 
 17 19  1  0  0  0  0 
 17 20  1  0  0  0  0 
M  END
> <SMILES>
OC[C@H]1O[C@H](C[C@@H]1O)N1C=C(C(=O)NC1=O)C(F)(F)F

$$$$

  CDK     01261921162D

 38 41  0  0  1  0  0  0  0  0999 V2000
    2.2649   -3.3738    0.0000 O   0  5  0  0  0  0  0  0  0  0  0  0
    0.9739   -2.6099    0.0000 C   0  0  0  0  0  0  0  0  0  0  0  0
   -0.3331   -3.3460    0.0000 O   0  0  0  0  0  0  0  0  0  0  0  0
    0.9900   -1.1100    0.0000 C   0  0  0  0  0  0  0  0  0  0  0  0
    2.3100   -0.3500    0.0000 C   0  0  0  0  0  0  0  0  0  0  0  0
    2.3100    1.1700    0.0000 C   0  0  0  0  0  0  0  0  0  0  0  0
    0.9900    1.9200    0.0000 S   0  0  0  0  0  0  0  0  0  0  0  0
   -0.3000    1.1700    0.0000 C   0  0  2  0  0  0  0  0  0  0  0  0
   -0.6904    2.6183    0.0000 H   0  0  0  0  0  0  0  0  0  0  0  0
   -1.8000    1.1700    0.0000 C   0  0  2  0  0  0  0  0  0  0  0  0
   -2.8607    2.2307    0.0000 N   0  0  0  0  0  0  0  0  0  0  0  0
   -4.3095    1.8424    0.0000 C   0  0  0  0  0  0  0  0  0  0  0  0
   -4.6978    0.3935    0.0000 O   0  0  0  0  0  0  0  0  0  0  0  0
   -5.3702    2.9031    0.0000 C   0  0  0  0  0  0  0  0  0  0  0  0
   -6.8191    2.5149    0.0000 N   0  0  0  0  0  0  0  0  0  0  0  0
   -7.8798    3.5755    0.0000 O   0  0  0  0  0  0  0  0  0  0  0  0
   -9.3286    3.1873    0.0000 C   0  0  0  0  0  0  0  0  0  0  0  0
  -10.5574    2.3269    0.0000 C   0  0  0  0  0  0  0  0  0  0  0  0
   -8.6947    1.8278    0.0000 C   0  0  0  0  0  0  0  0  0  0  0  0
  -10.3893    4.2480    0.0000 C   0  0  0  0  0  0  0  0  0  0  0  0
  -11.8382    3.8597    0.0000 O   0  0  0  0  0  0  0  0  0  0  0  0
  -10.0011    5.6968    0.0000 O   0  0  0  0  0  0  0  0  0  0  0  0
   -4.9820    4.3520    0.0000 C   0  0  0  0  0  0  0  0  0  0  0  0
   -3.5887    4.8875    0.0000 C   0  0  0  0  0  0  0  0  0  0  0  0
   -3.6579    6.3880    0.0000 S   0  0  0  0  0  0  0  0  0  0  0  0
   -5.1108    6.7689    0.0000 C   0  0  0  0  0  0  0  0  0  0  0  0
   -5.6513    8.1681    0.0000 N   0  0  0  0  0  0  0  0  0  0  0  0
   -5.9254    5.5181    0.0000 N   0  0  0  0  0  0  0  0  0  0  0  0
   -1.8000   -0.3300    0.0000 C   0  0  0  0  0  0  0  0  0  0  0  0
   -2.8607   -1.3907    0.0000 O   0  0  0  0  0  0  0  0  0  0  0  0
   -0.3000   -0.3300    0.0000 N   0  0  0  0  0  0  0  0  0  0  0  0
    3.6086   -1.1008    0.0000 C   0  0  0  0  0  0  0  0  0  0  0  0
    4.9081   -0.3516    0.0000 N   0  3  0  0  0  0  0  0  0  0  0  0
    4.9085    1.1493    0.0000 C   0  0  0  0  0  0  0  0  0  0  0  0
    6.2080    1.8985    0.0000 C   0  0  0  0  0  0  0  0  0  0  0  0
    7.5070    1.1469    0.0000 C   0  0  0  0  0  0  0  0  0  0  0  0
    7.5066   -0.3539    0.0000 C   0  0  0  0  0  0  0  0  0  0  0  0
    6.2071   -1.1032    0.0000 C   0  0  0  0  0  0  0  0  0  0  0  0
  1  2  1  0  0  0  0 
  2  3  2  0  0  0  0 
  2  4  1  0  0  0  0 
  4  5  2  0  0  0  0 
  5  6  1  0  0  0  0 
  6  7  1  0  0  0  0 
  7  8  1  0  0  0  0 
  8  9  1  6  0  0  0 
  8 10  1  0  0  0  0 
 10 11  1  1  0  0  0 
 11 12  1  0  0  0  0 
 12 13  2  0  0  0  0 
 12 14  1  0  0  0  0 
 14 15  2  0  0  0  0 
 15 16  1  4  0  0  0 
 16 17  1  0  0  0  0 
 17 18  1  0  0  0  0 
 17 19  1  0  0  0  0 
 17 20  1  0  0  0  0 
 20 21  1  0  0  0  0 
 20 22  2  0  0  0  0 
 14 23  1  0  0  0  0 
 23 24  2  0  0  0  0 
 24 25  1  0  0  0  0 
 25 26  1  0  0  0  0 
 26 27  1  0  0  0  0 
 26 28  2  0  0  0  0 
 23 28  1  0  0  0  0 
 10 29  1  0  0  0  0 
 29 30  2  0  0  0  0 
 29 31  1  0  0  0  0 
  4 31  1  0  0  0  0 
  8 31  1  0  0  0  0 
  5 32  1  0  0  0  0 
 32 33  1  0  0  0  0 
 33 34  2  0  0  0  0 
 34 35  1  0  0  0  0 
 35 36  2  0  0  0  0 
 36 37  1  0  0  0  0 
 37 38  2  0  0  0  0 
 33 38  1  0  0  0  0 
M  CHG  1   1  -1
M  CHG  1  33   1
M  END
> <SMILES>
[O-]C(=O)C1=C(CS[C@]2([H])[C@H](NC(=O)C(=N/OC(C)(C)C(O)=O)C3=CSC(N)=N3)C(=O)N12)C[N+]1=CC=CC=C1

$$$$

  CDK     01261921162D

 20 20  0  0  1  0  0  0  0  0999 V2000
   -5.1975   -1.4994    0.0000 O   0  0  0  0  0  0  0  0  0  0  0  0
   -3.8983   -0.7496    0.0000 C   0  0  0  0  0  0  0  0  0  0  0  0
   -3.8981    0.7504    0.0000 C   0  0  1  0  0  0  0  0  0  0  0  0
   -5.1970    1.5006    0.0000 N   0  0  0  0  0  0  0  0  0  0  0  0
   -6.4962    0.7508    0.0000 C   0  0  0  0  0  0  0  0  0  0  0  0
   -6.4964   -0.7492    0.0000 O   0  0  0  0  0  0  0  0  0  0  0  0
   -7.7951    1.5010    0.0000 C   0  0  0  0  0  0  0  0  0  0  0  0
   -9.0942    0.7512    0.0000 Cl  0  0  0  0  0  0  0  0  0  0  0  0
   -7.7948    3.0010    0.0000 Cl  0  0  0  0  0  0  0  0  0  0  0  0
   -2.5989    1.5002    0.0000 C   0  0  2  0  0  0  0  0  0  0  0  0
   -2.5987    3.0002    0.0000 O   0  0  0  0  0  0  0  0  0  0  0  0
   -1.3000    0.7500    0.0000 C   0  0  0  0  0  0  0  0  0  0  0  0
   -1.3000   -0.7500    0.0000 C   0  0  0  0  0  0  0  0  0  0  0  0
    0.0000   -1.5000    0.0000 C   0  0  0  0  0  0  0  0  0  0  0  0
    1.3000   -0.7500    0.0000 C   0  0  0  0  0  0  0  0  0  0  0  0
    1.3000    0.7500    0.0000 C   0  0  0  0  0  0  0  0  0  0  0  0
    0.0000    1.5000    0.0000 C   0  0  0  0  0  0  0  0  0  0  0  0
    2.5989   -1.5002    0.0000 N   0  3  0  0  0  0  0  0  0  0  0  0
    3.8981   -0.7504    0.0000 O   0  5  0  0  0  0  0  0  0  0  0  0
    2.5987   -3.0002    0.0000 O   0  0  0  0  0  0  0  0  0  0  0  0
  1  2  1  0  0  0  0 
  2  3  1  0  0  0  0 
  3  4  1  1  0  0  0 
  4  5  1  0  0  0  0 
  5  6  2  0  0  0  0 
  5  7  1  0  0  0  0 
  7  8  1  0  0  0  0 
  7  9  1  0  0  0  0 
  3 10  1  0  0  0  0 
 10 11  1  6  0  0  0 
 10 12  1  0  0  0  0 
 12 13  2  0  0  0  0 
 13 14  1  0  0  0  0 
 14 15  2  0  0  0  0 
 15 16  1  0  0  0  0 
 16 17  2  0  0  0  0 
 12 17  1  0  0  0  0 
 15 18  1  0  0  0  0 
 18 19  1  0  0  0  0 
 18 20  2  0  0  0  0 
M  CHG  1  18   1
M  CHG  1  19  -1
M  END
> <SMILES>
OC[C@@H](NC(=O)C(Cl)Cl)[C@H](O)C1=CC=C(C=C1)[N+]([O-])=O

$$$$

  CDK     01261921162D

 19 20  0  0  0  0  0  0  0  0999 V2000
    3.2708    2.3017    0.0000 C   0  0  0  0  0  0  0  0  0  0  0  0
    2.5208    1.0026    0.0000 N   0  0  0  0  0  0  0  0  0  0  0  0
    3.1237   -0.3731    0.0000 C   0  0  0  0  0  0  0  0  0  0  0  0
    4.5901   -0.6886    0.0000 C   0  0  0  0  0  0  0  0  0  0  0  0
    5.0501   -2.1164    0.0000 C   0  0  0  0  0  0  0  0  0  0  0  0
    6.5166   -2.4319    0.0000 O   0  0  0  0  0  0  0  0  0  0  0  0
    4.0436   -3.2286    0.0000 O   0  0  0  0  0  0  0  0  0  0  0  0
    2.0153   -1.3729    0.0000 C   0  0  0  0  0  0  0  0  0  0  0  0
    0.7163   -0.6229    0.0000 C   0  0  0  0  0  0  0  0  0  0  0  0
    1.0279    0.8369    0.0000 C   0  0  0  0  0  0  0  0  0  0  0  0
    0.0215    1.9491    0.0000 C   0  0  0  0  0  0  0  0  0  0  0  0
    0.4814    3.3768    0.0000 O   0  0  0  0  0  0  0  0  0  0  0  0
   -1.4450    1.6336    0.0000 C   0  0  0  0  0  0  0  0  0  0  0  0
   -1.9054    0.2051    0.0000 C   0  0  0  0  0  0  0  0  0  0  0  0
   -3.3726   -0.1113    0.0000 C   0  0  0  0  0  0  0  0  0  0  0  0
   -4.3792    1.0008    0.0000 C   0  0  0  0  0  0  0  0  0  0  0  0
   -5.8456    0.6853    0.0000 C   0  0  0  0  0  0  0  0  0  0  0  0
   -3.9187    2.4292    0.0000 C   0  0  0  0  0  0  0  0  0  0  0  0
   -2.4516    2.7456    0.0000 C   0  0  0  0  0  0  0  0  0  0  0  0
  1  2  1  0  0  0  0 
  2  3  1  0  0  0  0 
  3  4  1  0  0  0  0 
  4  5  1  0  0  0  0 
  5  6  1  0  0  0  0 
  5  7  2  0  0  0  0 
  3  8  2  0  0  0  0 
  8  9  1  0  0  0  0 
  9 10  2  0  0  0  0 
  2 10  1  0  0  0  0 
 10 11  1  0  0  0  0 
 11 12  2  0  0  0  0 
 11 13  1  0  0  0  0 
 13 14  2  0  0  0  0 
 14 15  1  0  0  0  0 
 15 16  2  0  0  0  0 
 16 17  1  0  0  0  0 
 16 18  1  0  0  0  0 
 18 19  2  0  0  0  0 
 13 19  1  0  0  0  0 
M  END
> <SMILES>
CN1C(CC(O)=O)=CC=C1C(=O)C1=CC=C(C)C=C1

$$$$

  CDK     01261921162D

 17 17  0  0  0  0  0  0  0  0999 V2000
    3.1343    6.0860    0.0000 C   0  0  0  0  0  0  0  0  0  0  0  0
    1.7073    6.5481    0.0000 N   0  0  0  0  0  0  0  0  0  0  0  0
    0.5936    5.5432    0.0000 C   0  0  0  0  0  0  0  0  0  0  0  0
   -0.8335    6.0053    0.0000 N   0  0  0  0  0  0  0  0  0  0  0  0
   -1.9472    5.0005    0.0000 C   0  0  0  0  0  0  0  0  0  0  0  0
   -3.3742    5.4625    0.0000 C   0  0  0  0  0  0  0  0  0  0  0  0
   -4.4879    4.4577    0.0000 S   0  0  0  0  0  0  0  0  0  0  0  0
   -5.9150    4.9198    0.0000 C   0  0  0  0  0  0  0  0  0  0  0  0
   -7.0287    3.9149    0.0000 C   0  0  0  0  0  0  0  0  0  0  0  0
   -8.4934    4.2179    0.0000 C   0  0  0  0  0  0  0  0  0  0  0  0
   -9.1073    5.5865    0.0000 C   0  0  0  0  0  0  0  0  0  0  0  0
   -9.2434    2.9189    0.0000 N   0  0  0  0  0  0  0  0  0  0  0  0
   -8.2437    1.8105    0.0000 C   0  0  0  0  0  0  0  0  0  0  0  0
   -6.8766    2.4184    0.0000 N   0  0  0  0  0  0  0  0  0  0  0  0
    0.9069    4.0763    0.0000 N   0  0  0  0  0  0  0  0  0  0  0  0
    2.3340    3.6143    0.0000 C   0  0  0  0  0  0  0  0  0  0  0  0
    3.7611    3.1522    0.0000 N   0  0  0  0  0  0  0  0  0  0  0  0
  1  2  1  4  0  0  0 
  2  3  2  0  0  0  0 
  3  4  1  0  0  0  0 
  4  5  1  0  0  0  0 
  5  6  1  0  0  0  0 
  6  7  1  0  0  0  0 
  7  8  1  0  0  0  0 
  8  9  1  0  0  0  0 
  9 10  2  0  0  0  0 
 10 11  1  0  0  0  0 
 10 12  1  0  0  0  0 
 12 13  1  0  0  0  0 
 13 14  2  0  0  0  0 
  9 14  1  0  0  0  0 
  3 15  1  0  0  0  0 
 15 16  1  0  0  0  0 
 16 17  3  0  0  0  0 
M  END
> <SMILES>
CN=C(NCCSCC1=C(C)NC=N1)NC#N

$$$$

  CDK     01261921162D

  7  6  0  0  0  0  0  0  0  0999 V2000
    2.4461   -2.5132    0.0000 O   0  0  0  0  0  0  0  0  0  0  0  0
    2.4461   -1.0132    0.0000 C   0  0  0  0  0  0  0  0  0  0  0  0
    3.7452   -0.2632    0.0000 O   0  0  0  0  0  0  0  0  0  0  0  0
    1.1471   -0.2632    0.0000 P   0  0  0  0  0  0  0  0  0  0  0  0
    1.1471    1.2368    0.0000 O   0  0  0  0  0  0  0  0  0  0  0  0
   -0.3301   -0.0027    0.0000 O   0  0  0  0  0  0  0  0  0  0  0  0
    0.6340   -1.6727    0.0000 O   0  0  0  0  0  0  0  0  0  0  0  0
  1  2  1  0  0  0  0 
  2  3  2  0  0  0  0 
  2  4  1  0  0  0  0 
  4  5  1  0  0  0  0 
  4  6  1  0  0  0  0 
  4  7  2  0  0  0  0 
M  END
> <SMILES>
OC(=O)P(O)(O)=O

$$$$

  CDK     01261921162D

 27 29  0  0  1  0  0  0  0  0999 V2000
   -0.6904    2.6183    0.0000 H   0  0  0  0  0  0  0  0  0  0  0  0
   -0.3000    1.1700    0.0000 C   0  0  1  0  0  0  0  0  0  0  0  0
    0.9900    1.9200    0.0000 S   0  0  0  0  0  0  0  0  0  0  0  0
    2.3100    1.1700    0.0000 C   0  0  0  0  0  0  0  0  0  0  0  0
    2.3100   -0.3500    0.0000 C   0  0  0  0  0  0  0  0  0  0  0  0
    3.6086   -1.1008    0.0000 C   0  0  0  0  0  0  0  0  0  0  0  0
    4.9081   -0.3516    0.0000 C   0  0  0  0  0  0  0  0  0  0  0  0
    0.9900   -1.1100    0.0000 C   0  0  0  0  0  0  0  0  0  0  0  0
   -0.3000   -0.3300    0.0000 N   0  0  0  0  0  0  0  0  0  0  0  0
   -1.8000   -0.3300    0.0000 C   0  0  0  0  0  0  0  0  0  0  0  0
   -2.8607   -1.3907    0.0000 O   0  0  0  0  0  0  0  0  0  0  0  0
   -1.8000    1.1700    0.0000 C   0  0  1  0  0  0  0  0  0  0  0  0
   -2.8607    2.2307    0.0000 N   0  0  0  0  0  0  0  0  0  0  0  0
   -4.3095    1.8424    0.0000 C   0  0  0  0  0  0  0  0  0  0  0  0
   -4.6978    0.3935    0.0000 O   0  0  0  0  0  0  0  0  0  0  0  0
   -5.3702    2.9031    0.0000 C   0  0  0  0  0  0  0  0  0  0  0  0
   -6.8191    2.5149    0.0000 N   0  0  0  0  0  0  0  0  0  0  0  0
   -7.8798    3.5755    0.0000 O   0  0  0  0  0  0  0  0  0  0  0  0
   -4.9820    4.3520    0.0000 C   0  0  0  0  0  0  0  0  0  0  0  0
   -3.5887    4.8875    0.0000 C   0  0  0  0  0  0  0  0  0  0  0  0
   -3.6579    6.3880    0.0000 S   0  0  0  0  0  0  0  0  0  0  0  0
   -5.1108    6.7689    0.0000 C   0  0  0  0  0  0  0  0  0  0  0  0
   -5.6513    8.1681    0.0000 N   0  0  0  0  0  0  0  0  0  0  0  0
   -5.9254    5.5181    0.0000 N   0  0  0  0  0  0  0  0  0  0  0  0
    0.9739   -2.6099    0.0000 C   0  0  0  0  0  0  0  0  0  0  0  0
    2.2649   -3.3738    0.0000 O   0  0  0  0  0  0  0  0  0  0  0  0
   -0.3331   -3.3460    0.0000 O   0  0  0  0  0  0  0  0  0  0  0  0
  2  1  1  6  0  0  0 
  2  3  1  0  0  0  0 
  3  4  1  0  0  0  0 
  4  5  1  0  0  0  0 
  5  6  1  0  0  0  0 
  6  7  2  0  0  0  0 
  5  8  2  0  0  0  0 
  8  9  1  0  0  0  0 
  2  9  1  0  0  0  0 
  9 10  1  0  0  0  0 
 10 11  2  0  0  0  0 
 10 12  1  0  0  0  0 
  2 12  1  0  0  0  0 
 12 13  1  1  0  0  0 
 13 14  1  0  0  0  0 
 14 15  2  0  0  0  0 
 14 16  1  0  0  0  0 
 16 17  2  0  0  0  0 
 17 18  1  4  0  0  0 
 16 19  1  0  0  0  0 
 19 20  2  0  0  0  0 
 20 21  1  0  0  0  0 
 21 22  1  0  0  0  0 
 22 23  1  0  0  0  0 
 22 24  2  0  0  0  0 
 19 24  1  0  0  0  0 
  8 25  1  0  0  0  0 
 25 26  1  0  0  0  0 
 25 27  2  0  0  0  0 
M  END
> <SMILES>
[H][C@]12SCC(C=C)=C(N1C(=O)[C@H]2NC(=O)C(=N/O)C1=CSC(N)=N1)C(O)=O

$$$$

  CDK     01261921162D

 33 35  0  0  1  0  0  0  0  0999 V2000
   -6.4970    1.5006    0.0000 C   0  0  0  0  0  0  0  0  0  0  0  0
   -5.1981    0.7504    0.0000 N   0  0  0  0  0  0  0  0  0  0  0  0
   -3.8989    1.5002    0.0000 C   0  0  0  0  0  0  0  0  0  0  0  0
   -2.6000    0.7500    0.0000 C   0  0  0  0  0  0  0  0  0  0  0  0
   -2.6000   -0.7500    0.0000 C   0  0  0  0  0  0  0  0  0  0  0  0
   -1.3000   -1.5000    0.0000 N   0  0  0  0  0  0  0  0  0  0  0  0
    0.0000   -0.7500    0.0000 C   0  0  0  0  0  0  0  0  0  0  0  0
    1.3000   -1.5000    0.0000 N   0  0  0  0  0  0  0  0  0  0  0  0
    2.6000   -0.7500    0.0000 C   0  0  0  0  0  0  0  0  0  0  0  0
    3.8989   -1.5002    0.0000 N   0  0  0  0  0  0  0  0  0  0  0  0
    2.6000    0.7500    0.0000 N   0  0  0  0  0  0  0  0  0  0  0  0
    1.3000    1.5000    0.0000 C   0  0  0  0  0  0  0  0  0  0  0  0
    1.3000    3.0000    0.0000 N   0  0  0  0  0  0  0  0  0  0  0  0
    0.0000    0.7500    0.0000 C   0  0  0  0  0  0  0  0  0  0  0  0
   -1.3000    1.5000    0.0000 N   0  0  0  0  0  0  0  0  0  0  0  0
   -5.1983   -0.7496    0.0000 C   0  0  0  0  0  0  0  0  0  0  0  0
   -3.8988   -1.5004    0.0000 C   0  0  0  0  0  0  0  0  0  0  0  0
   -3.8983   -3.0012    0.0000 C   0  0  0  0  0  0  0  0  0  0  0  0
   -5.1974   -3.7512    0.0000 C   0  0  0  0  0  0  0  0  0  0  0  0
   -6.4969   -3.0004    0.0000 C   0  0  0  0  0  0  0  0  0  0  0  0
   -6.4974   -1.4996    0.0000 C   0  0  0  0  0  0  0  0  0  0  0  0
   -5.1976   -5.2512    0.0000 C   0  0  0  0  0  0  0  0  0  0  0  0
   -3.8987   -6.0015    0.0000 O   0  0  0  0  0  0  0  0  0  0  0  0
   -6.4968   -6.0010    0.0000 N   0  0  0  0  0  0  0  0  0  0  0  0
   -6.4970   -7.5010    0.0000 C   0  0  1  0  0  0  0  0  0  0  0  0
   -7.7962   -8.2508    0.0000 C   0  0  0  0  0  0  0  0  0  0  0  0
   -7.7964   -9.7508    0.0000 C   0  0  0  0  0  0  0  0  0  0  0  0
   -9.0956  -10.5006    0.0000 C   0  0  0  0  0  0  0  0  0  0  0  0
   -9.0958  -12.0006    0.0000 O   0  0  0  0  0  0  0  0  0  0  0  0
  -10.3945   -9.7504    0.0000 O   0  0  0  0  0  0  0  0  0  0  0  0
   -5.1981   -8.2512    0.0000 C   0  0  0  0  0  0  0  0  0  0  0  0
   -5.1983   -9.7512    0.0000 O   0  0  0  0  0  0  0  0  0  0  0  0
   -3.8989   -7.5015    0.0000 O   0  0  0  0  0  0  0  0  0  0  0  0
  1  2  1  0  0  0  0 
  2  3  1  0  0  0  0 
  3  4  1  0  0  0  0 
  4  5  2  0  0  0  0 
  5  6  1  0  0  0  0 
  6  7  2  0  0  0  0 
  7  8  1  0  0  0  0 
  8  9  2  0  0  0  0 
  9 10  1  0  0  0  0 
  9 11  1  0  0  0  0 
 11 12  2  0  0  0  0 
 12 13  1  0  0  0  0 
 12 14  1  0  0  0  0 
  7 14  1  0  0  0  0 
 14 15  2  0  0  0  0 
  4 15  1  0  0  0  0 
  2 16  1  0  0  0  0 
 16 17  2  0  0  0  0 
 17 18  1  0  0  0  0 
 18 19  2  0  0  0  0 
 19 20  1  0  0  0  0 
 20 21  2  0  0  0  0 
 16 21  1  0  0  0  0 
 19 22  1  0  0  0  0 
 22 23  2  0  0  0  0 
 22 24  1  0  0  0  0 
 25 24  1  6  0  0  0 
 25 26  1  0  0  0  0 
 26 27  1  0  0  0  0 
 27 28  1  0  0  0  0 
 28 29  1  0  0  0  0 
 28 30  2  0  0  0  0 
 25 31  1  0  0  0  0 
 31 32  1  0  0  0  0 
 31 33  2  0  0  0  0 
M  END
> <SMILES>
CN(CC1=CN=C2N=C(N)N=C(N)C2=N1)C1=CC=C(C=C1)C(=O)N[C@@H](CCC(O)=O)C(O)=O

$$$$

  CDK     01261921162D

 25 27  0  0  1  0  0  0  0  0999 V2000
   -0.6904    2.6183    0.0000 H   0  0  0  0  0  0  0  0  0  0  0  0
   -0.3000    1.1700    0.0000 C   0  0  1  0  0  0  0  0  0  0  0  0
    0.9900    1.9200    0.0000 S   0  0  0  0  0  0  0  0  0  0  0  0
    2.3100    1.1700    0.0000 C   0  0  0  0  0  0  0  0  0  0  0  0
    2.3100   -0.3500    0.0000 C   0  0  0  0  0  0  0  0  0  0  0  0
    3.6086   -1.1008    0.0000 C   0  0  0  0  0  0  0  0  0  0  0  0
    0.9900   -1.1100    0.0000 C   0  0  0  0  0  0  0  0  0  0  0  0
   -0.3000   -0.3300    0.0000 N   0  0  0  0  0  0  0  0  0  0  0  0
   -1.8000   -0.3300    0.0000 C   0  0  0  0  0  0  0  0  0  0  0  0
   -2.8607   -1.3907    0.0000 O   0  0  0  0  0  0  0  0  0  0  0  0
   -1.8000    1.1700    0.0000 C   0  0  1  0  0  0  0  0  0  0  0  0
   -2.8607    2.2307    0.0000 N   0  0  0  0  0  0  0  0  0  0  0  0
   -4.3095    1.8424    0.0000 C   0  0  0  0  0  0  0  0  0  0  0  0
   -4.6978    0.3935    0.0000 O   0  0  0  0  0  0  0  0  0  0  0  0
   -5.3702    2.9031    0.0000 C   0  0  2  0  0  0  0  0  0  0  0  0
   -6.8191    2.5149    0.0000 N   0  0  0  0  0  0  0  0  0  0  0  0
   -4.9820    4.3520    0.0000 C   0  0  0  0  0  0  0  0  0  0  0  0
   -6.0436    5.4129    0.0000 C   0  0  0  0  0  0  0  0  0  0  0  0
   -5.6553    6.8618    0.0000 C   0  0  0  0  0  0  0  0  0  0  0  0
   -4.2055    7.2498    0.0000 C   0  0  0  0  0  0  0  0  0  0  0  0
   -3.1439    6.1888    0.0000 C   0  0  0  0  0  0  0  0  0  0  0  0
   -3.5322    4.7400    0.0000 C   0  0  0  0  0  0  0  0  0  0  0  0
    0.9739   -2.6099    0.0000 C   0  0  0  0  0  0  0  0  0  0  0  0
    2.2649   -3.3738    0.0000 O   0  0  0  0  0  0  0  0  0  0  0  0
   -0.3331   -3.3460    0.0000 O   0  0  0  0  0  0  0  0  0  0  0  0
  2  1  1  6  0  0  0 
  2  3  1  0  0  0  0 
  3  4  1  0  0  0  0 
  4  5  1  0  0  0  0 
  5  6  1  0  0  0  0 
  5  7  2  0  0  0  0 
  7  8  1  0  0  0  0 
  2  8  1  0  0  0  0 
  8  9  1  0  0  0  0 
  9 10  2  0  0  0  0 
  9 11  1  0  0  0  0 
  2 11  1  0  0  0  0 
 11 12  1  1  0  0  0 
 12 13  1  0  0  0  0 
 13 14  2  0  0  0  0 
 13 15  1  0  0  0  0 
 15 16  1  6  0  0  0 
 15 17  1  0  0  0  0 
 17 18  2  0  0  0  0 
 18 19  1  0  0  0  0 
 19 20  2  0  0  0  0 
 20 21  1  0  0  0  0 
 21 22  2  0  0  0  0 
 17 22  1  0  0  0  0 
  7 23  1  0  0  0  0 
 23 24  1  0  0  0  0 
 23 25  2  0  0  0  0 
M  END
> <SMILES>
[H][C@]12SCC(C)=C(N1C(=O)[C@H]2NC(=O)[C@H](N)C1=CC=CC=C1)C(O)=O

$$$$

  CDK     01261921162D

 23 24  0  0  1  0  0  0  0  0999 V2000
    9.7162   -9.9247    0.0000 C   0  0  0  0  0  0  0  0  0  0  0  0
    9.3181   -8.4785    0.0000 C   0  0  0  0  0  0  0  0  0  0  0  0
   10.3716   -7.4106    0.0000 C   0  0  0  0  0  0  0  0  0  0  0  0
    7.8667   -8.1001    0.0000 C   0  0  2  0  0  0  0  0  0  0  0  0
    6.8132   -9.1679    0.0000 N   0  0  0  0  0  0  0  0  0  0  0  0
    7.4686   -6.6538    0.0000 C   0  0  0  0  0  0  0  0  0  0  0  0
    8.5221   -5.5860    0.0000 O   0  0  0  0  0  0  0  0  0  0  0  0
    6.0171   -6.2754    0.0000 O   0  0  0  0  0  0  0  0  0  0  0  0
    5.6191   -4.8292    0.0000 C   0  0  0  0  0  0  0  0  0  0  0  0
    4.1676   -4.4508    0.0000 C   0  0  0  0  0  0  0  0  0  0  0  0
    3.7695   -3.0046    0.0000 O   0  0  0  0  0  0  0  0  0  0  0  0
    2.3180   -2.6262    0.0000 C   0  0  0  0  0  0  0  0  0  0  0  0
    1.9200   -1.1800    0.0000 N   0  0  0  0  0  0  0  0  0  0  0  0
    2.8500    0.0000    0.0000 C   0  0  0  0  0  0  0  0  0  0  0  0
    2.0100    1.2500    0.0000 N   0  0  0  0  0  0  0  0  0  0  0  0
    0.5600    0.8300    0.0000 C   0  0  0  0  0  0  0  0  0  0  0  0
    0.5900   -0.6700    0.0000 C   0  0  0  0  0  0  0  0  0  0  0  0
   -0.8900   -1.3700    0.0000 N   0  0  0  0  0  0  0  0  0  0  0  0
   -2.0800   -0.5700    0.0000 C   0  0  0  0  0  0  0  0  0  0  0  0
   -3.4155   -1.2529    0.0000 N   0  0  0  0  0  0  0  0  0  0  0  0
   -2.0300    0.9200    0.0000 N   0  0  0  0  0  0  0  0  0  0  0  0
   -0.7100    1.6300    0.0000 C   0  0  0  0  0  0  0  0  0  0  0  0
   -0.6585    3.1291    0.0000 O   0  0  0  0  0  0  0  0  0  0  0  0
  1  2  1  0  0  0  0 
  2  3  1  0  0  0  0 
  2  4  1  0  0  0  0 
  4  5  1  6  0  0  0 
  4  6  1  0  0  0  0 
  6  7  2  0  0  0  0 
  6  8  1  0  0  0  0 
  8  9  1  0  0  0  0 
  9 10  1  0  0  0  0 
 10 11  1  0  0  0  0 
 11 12  1  0  0  0  0 
 12 13  1  0  0  0  0 
 13 14  1  0  0  0  0 
 14 15  2  0  0  0  0 
 15 16  1  0  0  0  0 
 16 17  2  0  0  0  0 
 13 17  1  0  0  0  0 
 17 18  1  0  0  0  0 
 18 19  1  0  0  0  0 
 19 20  1  0  0  0  0 
 19 21  2  0  0  0  0 
 21 22  1  0  0  0  0 
 16 22  1  0  0  0  0 
 22 23  2  0  0  0  0 
M  END
> <SMILES>
CC(C)[C@H](N)C(=O)OCCOCN1C=NC2=C1NC(N)=NC2=O

$$$$

  CDK     01261921162D

 27 29  0  0  1  0  0  0  0  0999 V2000
   -0.7425    2.4519    0.0000 H   0  0  0  0  0  0  0  0  0  0  0  0
   -0.5100    0.9700    0.0000 C   0  0  1  0  0  0  0  0  0  0  0  0
    0.9200    1.4300    0.0000 S   0  0  0  0  0  0  0  0  0  0  0  0
    1.8000    0.2200    0.0000 C   0  0  0  0  0  0  0  0  0  0  0  0
    2.9146   -0.7839    0.0000 C   0  0  0  0  0  0  0  0  0  0  0  0
    2.9146    1.2239    0.0000 C   0  0  0  0  0  0  0  0  0  0  0  0
    0.9200   -0.9900    0.0000 C   0  0  1  0  0  0  0  0  0  0  0  0
   -0.5100   -0.5300    0.0000 N   0  0  0  0  0  0  0  0  0  0  0  0
   -2.0100   -0.5300    0.0000 C   0  0  0  0  0  0  0  0  0  0  0  0
   -3.0707   -1.5907    0.0000 O   0  0  0  0  0  0  0  0  0  0  0  0
   -2.0100    0.9700    0.0000 C   0  0  1  0  0  0  0  0  0  0  0  0
   -3.0707    2.0307    0.0000 N   0  0  0  0  0  0  0  0  0  0  0  0
   -4.5195    1.6424    0.0000 C   0  0  0  0  0  0  0  0  0  0  0  0
   -4.9078    0.1935    0.0000 O   0  0  0  0  0  0  0  0  0  0  0  0
   -5.5802    2.7031    0.0000 C   0  0  0  0  0  0  0  0  0  0  0  0
   -7.0291    2.3149    0.0000 C   0  0  0  0  0  0  0  0  0  0  0  0
   -8.0898    3.3755    0.0000 O   0  0  0  0  0  0  0  0  0  0  0  0
   -7.4173    0.8660    0.0000 O   0  0  0  0  0  0  0  0  0  0  0  0
   -5.1920    4.1520    0.0000 C   0  0  0  0  0  0  0  0  0  0  0  0
   -6.2536    5.2129    0.0000 C   0  0  0  0  0  0  0  0  0  0  0  0
   -5.8653    6.6618    0.0000 C   0  0  0  0  0  0  0  0  0  0  0  0
   -4.4155    7.0498    0.0000 C   0  0  0  0  0  0  0  0  0  0  0  0
   -3.3539    5.9888    0.0000 C   0  0  0  0  0  0  0  0  0  0  0  0
   -3.7422    4.5400    0.0000 C   0  0  0  0  0  0  0  0  0  0  0  0
    1.3853   -2.4160    0.0000 C   0  0  0  0  0  0  0  0  0  0  0  0
    2.8529   -2.7261    0.0000 O   0  0  0  0  0  0  0  0  0  0  0  0
    0.3830   -3.5320    0.0000 O   0  0  0  0  0  0  0  0  0  0  0  0
  2  1  1  6  0  0  0 
  2  3  1  0  0  0  0 
  3  4  1  0  0  0  0 
  4  5  1  0  0  0  0 
  4  6  1  0  0  0  0 
  4  7  1  0  0  0  0 
  7  8  1  0  0  0  0 
  2  8  1  0  0  0  0 
  8  9  1  0  0  0  0 
  9 10  2  0  0  0  0 
  9 11  1  0  0  0  0 
  2 11  1  0  0  0  0 
 11 12  1  1  0  0  0 
 12 13  1  0  0  0  0 
 13 14  2  0  0  0  0 
 13 15  1  0  0  0  0 
 15 16  1  0  0  0  0 
 16 17  1  0  0  0  0 
 16 18  2  0  0  0  0 
 15 19  1  0  0  0  0 
 19 20  2  0  0  0  0 
 20 21  1  0  0  0  0 
 21 22  2  0  0  0  0 
 22 23  1  0  0  0  0 
 23 24  2  0  0  0  0 
 19 24  1  0  0  0  0 
  7 25  1  6  0  0  0 
 25 26  1  0  0  0  0 
 25 27  2  0  0  0  0 
M  END
> <SMILES>
[H][C@]12SC(C)(C)[C@@H](N1C(=O)[C@H]2NC(=O)C(C(O)=O)C1=CC=CC=C1)C(O)=O

$$$$

  CDK     01261921162D

 27 28  0  0  1  0  0  0  0  0999 V2000
   -9.2148   -4.7218    0.0000 C   0  0  0  0  0  0  0  0  0  0  0  0
   -7.9172   -5.4744    0.0000 C   0  0  0  0  0  0  0  0  0  0  0  0
   -6.6167   -4.7269    0.0000 O   0  0  0  0  0  0  0  0  0  0  0  0
   -5.3191   -5.4794    0.0000 C   0  0  0  0  0  0  0  0  0  0  0  0
   -5.3221   -6.9794    0.0000 O   0  0  0  0  0  0  0  0  0  0  0  0
   -4.0186   -4.7320    0.0000 C   0  0  2  0  0  0  0  0  0  0  0  0
   -4.0157   -3.2320    0.0000 C   0  0  0  0  0  0  0  0  0  0  0  0
   -5.3133   -2.4794    0.0000 C   0  0  0  0  0  0  0  0  0  0  0  0
   -5.3103   -0.9794    0.0000 C   0  0  0  0  0  0  0  0  0  0  0  0
   -6.6089   -0.2269    0.0000 C   0  0  0  0  0  0  0  0  0  0  0  0
   -6.6059    1.2731    0.0000 C   0  0  0  0  0  0  0  0  0  0  0  0
   -5.3045    2.0205    0.0000 C   0  0  0  0  0  0  0  0  0  0  0  0
   -4.0059    1.2680    0.0000 C   0  0  0  0  0  0  0  0  0  0  0  0
   -4.0089   -0.2320    0.0000 C   0  0  0  0  0  0  0  0  0  0  0  0
   -2.7211   -5.4845    0.0000 N   0  0  0  0  0  0  0  0  0  0  0  0
   -1.4206   -4.7371    0.0000 C   0  0  1  0  0  0  0  0  0  0  0  0
   -1.4176   -3.2371    0.0000 C   0  0  0  0  0  0  0  0  0  0  0  0
   -0.1230   -5.4896    0.0000 C   0  0  0  0  0  0  0  0  0  0  0  0
   -0.1259   -6.9896    0.0000 O   0  0  0  0  0  0  0  0  0  0  0  0
    1.1775   -4.7421    0.0000 N   0  0  0  0  0  0  0  0  0  0  0  0
    1.3346   -3.2542    0.0000 C   0  0  0  0  0  0  0  0  0  0  0  0
    2.8030   -2.9376    0.0000 C   0  0  0  0  0  0  0  0  0  0  0  0
    3.5530   -4.2367    0.0000 C   0  0  0  0  0  0  0  0  0  0  0  0
    2.5496   -5.3587    0.0000 C   0  0  1  0  0  0  0  0  0  0  0  0
    2.8614   -6.8259    0.0000 C   0  0  0  0  0  0  0  0  0  0  0  0
    4.2880   -7.2895    0.0000 O   0  0  0  0  0  0  0  0  0  0  0  0
    1.7467   -7.8296    0.0000 O   0  0  0  0  0  0  0  0  0  0  0  0
  1  2  1  0  0  0  0 
  2  3  1  0  0  0  0 
  3  4  1  0  0  0  0 
  4  5  2  0  0  0  0 
  4  6  1  0  0  0  0 
  6  7  1  0  0  0  0 
  7  8  1  0  0  0  0 
  8  9  1  0  0  0  0 
  9 10  2  0  0  0  0 
 10 11  1  0  0  0  0 
 11 12  2  0  0  0  0 
 12 13  1  0  0  0  0 
 13 14  2  0  0  0  0 
  9 14  1  0  0  0  0 
  6 15  1  6  0  0  0 
 15 16  1  0  0  0  0 
 16 17  1  1  0  0  0 
 16 18  1  0  0  0  0 
 18 19  2  0  0  0  0 
 18 20  1  0  0  0  0 
 20 21  1  0  0  0  0 
 21 22  1  0  0  0  0 
 22 23  1  0  0  0  0 
 23 24  1  0  0  0  0 
 20 24  1  0  0  0  0 
 24 25  1  1  0  0  0 
 25 26  1  0  0  0  0 
 25 27  2  0  0  0  0 
M  END
> <SMILES>
CCOC(=O)[C@H](CCC1=CC=CC=C1)N[C@@H](C)C(=O)N1CCC[C@H]1C(O)=O

$$$$

  CDK     01261921162D

 25 27  0  0  0  0  0  0  0  0999 V2000
    4.1000   -0.0000    0.0000 C   0  0  0  0  0  0  0  0  0  0  0  0
    2.6000    0.0000    0.0000 C   0  0  0  0  0  0  0  0  0  0  0  0
    1.7200    1.2100    0.0000 C   0  0  0  0  0  0  0  0  0  0  0  0
    2.1853    2.6360    0.0000 C   0  0  0  0  0  0  0  0  0  0  0  0
    3.6529    2.9461    0.0000 C   0  0  0  0  0  0  0  0  0  0  0  0
    4.1182    4.3721    0.0000 O   0  0  0  0  0  0  0  0  0  0  0  0
    4.6552    1.8301    0.0000 O   0  0  0  0  0  0  0  0  0  0  0  0
    0.2900    0.7500    0.0000 C   0  0  0  0  0  0  0  0  0  0  0  0
   -1.0100    1.5000    0.0000 C   0  0  0  0  0  0  0  0  0  0  0  0
   -2.3100    0.7500    0.0000 C   0  0  0  0  0  0  0  0  0  0  0  0
   -3.6089    1.5002    0.0000 F   0  0  0  0  0  0  0  0  0  0  0  0
   -2.3100   -0.7500    0.0000 C   0  0  0  0  0  0  0  0  0  0  0  0
   -1.0100   -1.5000    0.0000 C   0  0  0  0  0  0  0  0  0  0  0  0
    0.2900   -0.7500    0.0000 C   0  0  0  0  0  0  0  0  0  0  0  0
    1.7200   -1.2100    0.0000 C   0  0  0  0  0  0  0  0  0  0  0  0
    2.1853   -2.6360    0.0000 C   0  0  0  0  0  0  0  0  0  0  0  0
    3.6529   -2.9461    0.0000 C   0  0  0  0  0  0  0  0  0  0  0  0
    4.1186   -4.3728    0.0000 C   0  0  0  0  0  0  0  0  0  0  0  0
    5.5869   -4.6838    0.0000 C   0  0  0  0  0  0  0  0  0  0  0  0
    6.5894   -3.5680    0.0000 C   0  0  0  0  0  0  0  0  0  0  0  0
    6.1237   -2.1412    0.0000 C   0  0  0  0  0  0  0  0  0  0  0  0
    4.6554   -1.8303    0.0000 C   0  0  0  0  0  0  0  0  0  0  0  0
    8.0570   -3.8780    0.0000 S   0  0  0  0  0  0  0  0  0  0  0  0
    8.5223   -5.3040    0.0000 C   0  0  0  0  0  0  0  0  0  0  0  0
    9.0593   -2.7621    0.0000 O   0  0  0  0  0  0  0  0  0  0  0  0
  1  2  1  0  0  0  0 
  2  3  2  0  0  0  0 
  3  4  1  0  0  0  0 
  4  5  1  0  0  0  0 
  5  6  1  0  0  0  0 
  5  7  2  0  0  0  0 
  3  8  1  0  0  0  0 
  8  9  2  0  0  0  0 
  9 10  1  0  0  0  0 
 10 11  1  0  0  0  0 
 10 12  2  0  0  0  0 
 12 13  1  0  0  0  0 
 13 14  2  0  0  0  0 
  8 14  1  0  0  0  0 
 14 15  1  4  0  0  0 
  2 15  1  0  0  0  0 
 15 16  2  0  0  0  0 
 16 17  1  0  0  0  0 
 17 18  2  0  0  0  0 
 18 19  1  0  0  0  0 
 19 20  2  0  0  0  0 
 20 21  1  0  0  0  0 
 21 22  2  0  0  0  0 
 17 22  1  0  0  0  0 
 20 23  1  0  0  0  0 
 23 24  1  0  0  0  0 
 23 25  2  0  0  0  0 
M  END
> <SMILES>
CC1=C(CC(O)=O)C2=CC(F)=CC=C2C1=C/C1=CC=C(C=C1)S(C)=O

$$$$

  CDK     01261921162D

 24 27  0  0  0  0  0  0  0  0999 V2000
   -5.1981    0.7547    0.0000 N   0  0  0  0  0  0  0  0  0  0  0  0
   -3.8977    1.5024    0.0000 S   0  0  0  0  0  0  0  0  0  0  0  0
   -2.9314    2.6497    0.0000 O   0  0  0  0  0  0  0  0  0  0  0  0
   -4.8598    2.6532    0.0000 O   0  0  0  0  0  0  0  0  0  0  0  0
   -2.6000    0.7500    0.0000 C   0  0  0  0  0  0  0  0  0  0  0  0
   -2.6000   -0.7500    0.0000 C   0  0  0  0  0  0  0  0  0  0  0  0
   -3.8977   -1.5024    0.0000 Cl  0  0  0  0  0  0  0  0  0  0  0  0
   -1.2900   -1.5000    0.0000 C   0  0  0  0  0  0  0  0  0  0  0  0
    0.0000   -0.7500    0.0000 C   0  0  0  0  0  0  0  0  0  0  0  0
    1.3000   -1.5000    0.0000 N   0  0  0  0  0  0  0  0  0  0  0  0
    2.6000   -0.7500    0.0000 C   0  0  0  0  0  0  0  0  0  0  0  0
    2.6000    0.7500    0.0000 N   0  0  0  0  0  0  0  0  0  0  0  0
    1.3000    1.5000    0.0000 S   0  0  0  0  0  0  0  0  0  0  0  0
    2.2641    2.6492    0.0000 O   0  0  0  0  0  0  0  0  0  0  0  0
    0.3359    2.6492    0.0000 O   0  0  0  0  0  0  0  0  0  0  0  0
    0.0000    0.7500    0.0000 C   0  0  0  0  0  0  0  0  0  0  0  0
   -1.2900    1.5000    0.0000 C   0  0  0  0  0  0  0  0  0  0  0  0
    3.8989   -1.5002    0.0000 C   0  0  0  0  0  0  0  0  0  0  0  0
    5.1982   -0.7506    0.0000 C   0  0  0  0  0  0  0  0  0  0  0  0
    6.4975   -1.5019    0.0000 C   0  0  0  0  0  0  0  0  0  0  0  0
    4.9683   -1.8530    0.0000 C   0  0  0  0  0  0  0  0  0  0  0  0
    3.8989   -3.0010    0.0000 C   0  0  0  0  0  0  0  0  0  0  0  0
    5.1932   -3.7436    0.0000 C   0  0  0  0  0  0  0  0  0  0  0  0
    6.4925   -2.9940    0.0000 C   0  0  0  0  0  0  0  0  0  0  0  0
  1  2  1  0  0  0  0 
  2  3  2  0  0  0  0 
  2  4  2  0  0  0  0 
  2  5  1  0  0  0  0 
  5  6  2  0  0  0  0 
  6  7  1  0  0  0  0 
  6  8  1  0  0  0  0 
  8  9  2  0  0  0  0 
  9 10  1  0  0  0  0 
 10 11  1  0  0  0  0 
 11 12  1  0  0  0  0 
 12 13  1  0  0  0  0 
 13 14  2  0  0  0  0 
 13 15  2  0  0  0  0 
 13 16  1  0  0  0  0 
  9 16  1  0  0  0  0 
 16 17  2  0  0  0  0 
  5 17  1  0  0  0  0 
 11 18  1  0  0  0  0 
 18 19  1  0  0  0  0 
 19 20  1  0  0  0  0 
 20 21  1  0  0  0  0 
 21 22  1  0  0  0  0 
 18 22  1  0  0  0  0 
 22 23  1  0  0  0  0 
 23 24  2  0  0  0  0 
 20 24  1  0  0  0  0 
M  END
> <SMILES>
NS(=O)(=O)C1=C(Cl)C=C2NC(NS(=O)(=O)C2=C1)C1CC2CC1C=C2

$$$$

  CDK     01261921162D

 30 33  0  0  1  0  0  0  0  0999 V2000
   -0.7425    2.4519    0.0000 H   0  0  0  0  0  0  0  0  0  0  0  0
   -0.5100    0.9700    0.0000 C   0  0  1  0  0  0  0  0  0  0  0  0
    0.9200    1.4300    0.0000 S   0  0  0  0  0  0  0  0  0  0  0  0
    1.8000    0.2200    0.0000 C   0  0  0  0  0  0  0  0  0  0  0  0
    2.9146   -0.7839    0.0000 C   0  0  0  0  0  0  0  0  0  0  0  0
    2.9146    1.2239    0.0000 C   0  0  0  0  0  0  0  0  0  0  0  0
    0.9200   -0.9900    0.0000 C   0  0  1  0  0  0  0  0  0  0  0  0
   -0.5100   -0.5300    0.0000 N   0  0  0  0  0  0  0  0  0  0  0  0
   -2.0100   -0.5300    0.0000 C   0  0  0  0  0  0  0  0  0  0  0  0
   -3.0707   -1.5907    0.0000 O   0  0  0  0  0  0  0  0  0  0  0  0
   -2.0100    0.9700    0.0000 C   0  0  1  0  0  0  0  0  0  0  0  0
   -3.0707    2.0307    0.0000 N   0  0  0  0  0  0  0  0  0  0  0  0
   -4.5195    1.6424    0.0000 C   0  0  0  0  0  0  0  0  0  0  0  0
   -4.9078    0.1935    0.0000 O   0  0  0  0  0  0  0  0  0  0  0  0
   -5.5802    2.7031    0.0000 C   0  0  0  0  0  0  0  0  0  0  0  0
   -5.1913    4.1527    0.0000 C   0  0  0  0  0  0  0  0  0  0  0  0
   -3.7423    4.5407    0.0000 O   0  0  0  0  0  0  0  0  0  0  0  0
   -3.3539    5.9895    0.0000 C   0  0  0  0  0  0  0  0  0  0  0  0
   -4.4144    7.0503    0.0000 C   0  0  0  0  0  0  0  0  0  0  0  0
   -6.2520    5.2133    0.0000 C   0  0  0  0  0  0  0  0  0  0  0  0
   -7.7015    4.8244    0.0000 C   0  0  0  0  0  0  0  0  0  0  0  0
   -8.0904    3.3748    0.0000 C   0  0  0  0  0  0  0  0  0  0  0  0
   -9.5400    2.9859    0.0000 C   0  0  0  0  0  0  0  0  0  0  0  0
   -9.9289    1.5364    0.0000 C   0  0  0  0  0  0  0  0  0  0  0  0
   -8.8683    0.4757    0.0000 C   0  0  0  0  0  0  0  0  0  0  0  0
   -7.4187    0.8646    0.0000 C   0  0  0  0  0  0  0  0  0  0  0  0
   -7.0298    2.3142    0.0000 C   0  0  0  0  0  0  0  0  0  0  0  0
    1.3853   -2.4160    0.0000 C   0  0  0  0  0  0  0  0  0  0  0  0
    2.8529   -2.7261    0.0000 O   0  0  0  0  0  0  0  0  0  0  0  0
    0.3830   -3.5320    0.0000 O   0  0  0  0  0  0  0  0  0  0  0  0
  2  1  1  6  0  0  0 
  2  3  1  0  0  0  0 
  3  4  1  0  0  0  0 
  4  5  1  0  0  0  0 
  4  6  1  0  0  0  0 
  4  7  1  0  0  0  0 
  7  8  1  0  0  0  0 
  2  8  1  0  0  0  0 
  8  9  1  0  0  0  0 
  9 10  2  0  0  0  0 
  9 11  1  0  0  0  0 
  2 11  1  0  0  0  0 
 11 12  1  1  0  0  0 
 12 13  1  0  0  0  0 
 13 14  2  0  0  0  0 
 13 15  1  0  0  0  0 
 15 16  2  0  0  0  0 
 16 17  1  0  0  0  0 
 17 18  1  0  0  0  0 
 18 19  1  0  0  0  0 
 16 20  1  0  0  0  0 
 20 21  2  0  0  0  0 
 21 22  1  0  0  0  0 
 22 23  2  0  0  0  0 
 23 24  1  0  0  0  0 
 24 25  2  0  0  0  0 
 25 26  1  0  0  0  0 
 26 27  2  0  0  0  0 
 15 27  1  0  0  0  0 
 22 27  1  0  0  0  0 
  7 28  1  6  0  0  0 
 28 29  1  0  0  0  0 
 28 30  2  0  0  0  0 
M  END
> <SMILES>
[H][C@]12SC(C)(C)[C@@H](N1C(=O)[C@H]2NC(=O)C1=C(OCC)C=CC2=CC=CC=C12)C(O)=O

$$$$

  CDK     01261921162D

 16 17  0  0  1  0  0  0  0  0999 V2000
   -4.7155    2.7228    0.0000 C   0  0  0  0  0  0  0  0  0  0  0  0
   -3.4163    1.9730    0.0000 C   0  0  0  0  0  0  0  0  0  0  0  0
   -2.1173    2.7230    0.0000 C   0  0  0  0  0  0  0  0  0  0  0  0
   -0.8178    1.9721    0.0000 N   0  0  0  0  0  0  0  0  0  0  0  0
    0.4813    2.7221    0.0000 C   0  0  2  0  0  0  0  0  0  0  0  0
    0.6332    4.2165    0.0000 O   0  0  0  0  0  0  0  0  0  0  0  0
    2.1050    4.5165    0.0000 C   0  0  2  0  0  0  0  0  0  0  0  0
    2.7219    5.8838    0.0000 C   0  0  0  0  0  0  0  0  0  0  0  0
    4.2145    6.0331    0.0000 O   0  0  0  0  0  0  0  0  0  0  0  0
    2.8493    3.2226    0.0000 C   0  0  0  0  0  0  0  0  0  0  0  0
    1.8428    2.1104    0.0000 C   0  0  0  0  0  0  0  0  0  0  0  0
   -0.8173    0.4713    0.0000 C   0  0  0  0  0  0  0  0  0  0  0  0
    0.4819   -0.2785    0.0000 O   0  0  0  0  0  0  0  0  0  0  0  0
   -2.1163   -0.2787    0.0000 N   0  0  0  0  0  0  0  0  0  0  0  0
   -3.4159    0.4721    0.0000 C   0  0  0  0  0  0  0  0  0  0  0  0
   -4.7149   -0.2779    0.0000 O   0  0  0  0  0  0  0  0  0  0  0  0
  1  2  1  0  0  0  0 
  2  3  2  0  0  0  0 
  3  4  1  0  0  0  0 
  5  4  1  6  0  0  0 
  5  6  1  0  0  0  0 
  6  7  1  0  0  0  0 
  7  8  1  6  0  0  0 
  8  9  1  0  0  0  0 
  7 10  1  0  0  0  0 
 10 11  2  0  0  0  0 
  5 11  1  0  0  0  0 
  4 12  1  0  0  0  0 
 12 13  2  0  0  0  0 
 12 14  1  0  0  0  0 
 14 15  1  0  0  0  0 
  2 15  1  0  0  0  0 
 15 16  2  0  0  0  0 
M  END
> <SMILES>
CC1=CN([C@@H]2O[C@H](CO)C=C2)C(=O)NC1=O

$$$$

  CDK     01261921162D

 17 17  0  0  0  0  0  0  0  0999 V2000
  -10.3931    1.5015    0.0000 C   0  0  0  0  0  0  0  0  0  0  0  0
   -9.0942    0.7512    0.0000 C   0  0  0  0  0  0  0  0  0  0  0  0
   -7.7951    1.5010    0.0000 C   0  0  0  0  0  0  0  0  0  0  0  0
   -6.4962    0.7508    0.0000 N   0  0  0  0  0  0  0  0  0  0  0  0
   -5.1970    1.5006    0.0000 C   0  0  0  0  0  0  0  0  0  0  0  0
   -5.1968    3.0006    0.0000 O   0  0  0  0  0  0  0  0  0  0  0  0
   -3.8981    0.7504    0.0000 N   0  0  0  0  0  0  0  0  0  0  0  0
   -2.5989    1.5002    0.0000 S   0  0  0  0  0  0  0  0  0  0  0  0
   -1.6346    2.6491    0.0000 O   0  0  0  0  0  0  0  0  0  0  0  0
   -3.5629    2.6494    0.0000 O   0  0  0  0  0  0  0  0  0  0  0  0
   -1.3000    0.7500    0.0000 C   0  0  0  0  0  0  0  0  0  0  0  0
    0.0000    1.5000    0.0000 C   0  0  0  0  0  0  0  0  0  0  0  0
    1.3000    0.7500    0.0000 C   0  0  0  0  0  0  0  0  0  0  0  0
    1.3000   -0.7500    0.0000 C   0  0  0  0  0  0  0  0  0  0  0  0
    2.5989   -1.5002    0.0000 Cl  0  0  0  0  0  0  0  0  0  0  0  0
    0.0000   -1.5000    0.0000 C   0  0  0  0  0  0  0  0  0  0  0  0
   -1.3000   -0.7500    0.0000 C   0  0  0  0  0  0  0  0  0  0  0  0
  1  2  1  0  0  0  0 
  2  3  1  0  0  0  0 
  3  4  1  0  0  0  0 
  4  5  1  0  0  0  0 
  5  6  2  0  0  0  0 
  5  7  1  0  0  0  0 
  7  8  1  0  0  0  0 
  8  9  2  0  0  0  0 
  8 10  2  0  0  0  0 
  8 11  1  0  0  0  0 
 11 12  2  0  0  0  0 
 12 13  1  0  0  0  0 
 13 14  2  0  0  0  0 
 14 15  1  0  0  0  0 
 14 16  1  0  0  0  0 
 16 17  2  0  0  0  0 
 11 17  1  0  0  0  0 
M  END
> <SMILES>
CCCNC(=O)NS(=O)(=O)C1=CC=C(Cl)C=C1

$$$$

  CDK     01261921162D

 25 29  0  0  0  0  0  0  0  0999 V2000
   -6.3477    3.3205    0.0000 O   0  0  0  0  0  0  0  0  0  0  0  0
   -5.0486    2.5705    0.0000 C   0  0  0  0  0  0  0  0  0  0  0  0
   -3.7496    3.3205    0.0000 C   0  0  0  0  0  0  0  0  0  0  0  0
   -2.4506    2.5705    0.0000 C   0  0  0  0  0  0  0  0  0  0  0  0
   -2.4506    1.0705    0.0000 C   0  0  0  0  0  0  0  0  0  0  0  0
   -3.7496    0.3205    0.0000 C   0  0  0  0  0  0  0  0  0  0  0  0
   -5.0486    1.0705    0.0000 C   0  0  0  0  0  0  0  0  0  0  0  0
   -1.1515    0.3205    0.0000 C   0  0  0  0  0  0  0  0  0  0  0  0
    0.0620   -0.5612    0.0000 O   0  0  0  0  0  0  0  0  0  0  0  0
   -0.4015   -1.9877    0.0000 C   0  0  0  0  0  0  0  0  0  0  0  0
    0.4802   -3.2013    0.0000 O   0  0  0  0  0  0  0  0  0  0  0  0
   -1.9015   -1.9877    0.0000 C   0  0  0  0  0  0  0  0  0  0  0  0
   -2.9052   -3.1025    0.0000 C   0  0  0  0  0  0  0  0  0  0  0  0
   -4.3724   -2.7906    0.0000 C   0  0  0  0  0  0  0  0  0  0  0  0
   -4.8360   -1.3640    0.0000 C   0  0  0  0  0  0  0  0  0  0  0  0
   -3.8323   -0.2493    0.0000 C   0  0  0  0  0  0  0  0  0  0  0  0
   -2.3650   -0.5612    0.0000 C   0  0  0  0  0  0  0  0  0  0  0  0
    0.1475    1.0705    0.0000 C   0  0  0  0  0  0  0  0  0  0  0  0
    0.1475    2.5705    0.0000 C   0  0  0  0  0  0  0  0  0  0  0  0
   -1.1515    3.3205    0.0000 O   0  0  0  0  0  0  0  0  0  0  0  0
    1.4466    3.3205    0.0000 C   0  0  0  0  0  0  0  0  0  0  0  0
    2.7456    2.5705    0.0000 C   0  0  0  0  0  0  0  0  0  0  0  0
    4.0446    3.3205    0.0000 O   0  0  0  0  0  0  0  0  0  0  0  0
    2.7456    1.0705    0.0000 C   0  0  0  0  0  0  0  0  0  0  0  0
    1.4466    0.3205    0.0000 C   0  0  0  0  0  0  0  0  0  0  0  0
  1  2  1  0  0  0  0 
  2  3  2  0  0  0  0 
  3  4  1  0  0  0  0 
  4  5  2  0  0  0  0 
  5  6  1  0  0  0  0 
  6  7  2  0  0  0  0 
  2  7  1  0  0  0  0 
  5  8  1  0  0  0  0 
  8  9  1  0  0  0  0 
  9 10  1  0  0  0  0 
 10 11  2  0  0  0  0 
 10 12  1  0  0  0  0 
 12 13  2  0  0  0  0 
 13 14  1  0  0  0  0 
 14 15  2  0  0  0  0 
 15 16  1  0  0  0  0 
 16 17  2  0  0  0  0 
  8 17  1  0  0  0  0 
 12 17  1  0  0  0  0 
  8 18  1  0  0  0  0 
 18 19  2  0  0  0  0 
 19 20  1  0  0  0  0 
  4 20  1  0  0  0  0 
 19 21  1  0  0  0  0 
 21 22  2  0  0  0  0 
 22 23  1  0  0  0  0 
 22 24  1  0  0  0  0 
 24 25  2  0  0  0  0 
 18 25  1  0  0  0  0 
M  END
> <SMILES>
OC1=CC2=C(C=C1)C1(OC(=O)C3=CC=CC=C13)C1=C(O2)C=C(O)C=C1

$$$$

  CDK     01261921162D

 14 14  0  0  0  0  0  0  0  0999 V2000
    2.8425   -1.1939    0.0000 C   0  0  0  0  0  0  0  0  0  0  0  0
    1.4719   -0.5844    0.0000 N   0  0  0  0  0  0  0  0  0  0  0  0
    0.1729   -1.3344    0.0000 N   0  0  0  0  0  0  0  0  0  0  0  0
   -0.9355   -0.3347    0.0000 C   0  0  0  0  0  0  0  0  0  0  0  0
   -0.3326    1.0411    0.0000 S   0  0  0  0  0  0  0  0  0  0  0  0
    1.1603    0.8753    0.0000 C   0  0  0  0  0  0  0  0  0  0  0  0
    2.1667    1.9876    0.0000 N   0  0  0  0  0  0  0  0  0  0  0  0
    1.7068    3.4153    0.0000 C   0  0  0  0  0  0  0  0  0  0  0  0
    2.7132    4.5275    0.0000 C   0  0  0  0  0  0  0  0  0  0  0  0
    0.2403    3.7308    0.0000 O   0  0  0  0  0  0  0  0  0  0  0  0
   -2.4020   -0.6502    0.0000 S   0  0  0  0  0  0  0  0  0  0  0  0
   -2.8619   -2.0779    0.0000 N   0  0  0  0  0  0  0  0  0  0  0  0
   -2.4580    0.8488    0.0000 O   0  0  0  0  0  0  0  0  0  0  0  0
   -3.8879   -0.4451    0.0000 O   0  0  0  0  0  0  0  0  0  0  0  0
  1  2  1  0  0  0  0 
  2  3  1  0  0  0  0 
  3  4  2  0  0  0  0 
  4  5  1  0  0  0  0 
  5  6  1  0  0  0  0 
  2  6  1  0  0  0  0 
  6  7  2  0  0  0  0 
  7  8  1  4  0  0  0 
  8  9  1  0  0  0  0 
  8 10  2  0  0  0  0 
  4 11  1  0  0  0  0 
 11 12  1  0  0  0  0 
 11 13  2  0  0  0  0 
 11 14  2  0  0  0  0 
M  END
> <SMILES>
CN1N=C(SC1=NC(C)=O)S(N)(=O)=O

$$$$

  CDK     01261921162D

 34 35  0  0  0  0  0  0  0  0999 V2000
   12.1251   10.9487    0.0000 C   0  0  0  0  0  0  0  0  0  0  0  0
   11.6120    9.5392    0.0000 C   0  0  0  0  0  0  0  0  0  0  0  0
   11.6118    8.0392    0.0000 C   0  0  0  0  0  0  0  0  0  0  0  0
   13.0891    9.2786    0.0000 C   0  0  0  0  0  0  0  0  0  0  0  0
   10.1347    9.2788    0.0000 C   0  0  0  0  0  0  0  0  0  0  0  0
    9.1706   10.4280    0.0000 O   0  0  0  0  0  0  0  0  0  0  0  0
    9.6216    7.8693    0.0000 O   0  0  0  0  0  0  0  0  0  0  0  0
    8.1443    7.6090    0.0000 C   0  0  0  0  0  0  0  0  0  0  0  0
    7.6312    6.1995    0.0000 O   0  0  0  0  0  0  0  0  0  0  0  0
    6.1539    5.9392    0.0000 P   0  0  0  0  0  0  0  0  0  0  0  0
    6.1541    7.4392    0.0000 O   0  0  0  0  0  0  0  0  0  0  0  0
    5.6408    4.5297    0.0000 C   0  0  0  0  0  0  0  0  0  0  0  0
    4.1635    4.2693    0.0000 O   0  0  0  0  0  0  0  0  0  0  0  0
    3.6504    2.8598    0.0000 C   0  0  0  0  0  0  0  0  0  0  0  0
    2.1732    2.5995    0.0000 C   0  0  0  0  0  0  0  0  0  0  0  0
    1.6600    1.1900    0.0000 N   0  0  0  0  0  0  0  0  0  0  0  0
    2.5100   -0.0300    0.0000 C   0  0  0  0  0  0  0  0  0  0  0  0
    1.6000   -1.2200    0.0000 N   0  0  0  0  0  0  0  0  0  0  0  0
    0.1800   -0.7400    0.0000 C   0  0  0  0  0  0  0  0  0  0  0  0
   -1.1600   -1.4100    0.0000 C   0  0  0  0  0  0  0  0  0  0  0  0
   -1.2158   -2.9090    0.0000 N   0  0  0  0  0  0  0  0  0  0  0  0
   -2.4000   -0.6700    0.0000 N   0  0  0  0  0  0  0  0  0  0  0  0
   -2.3600    0.8500    0.0000 C   0  0  0  0  0  0  0  0  0  0  0  0
   -1.1000    1.5500    0.0000 N   0  0  0  0  0  0  0  0  0  0  0  0
    0.1800    0.7900    0.0000 C   0  0  0  0  0  0  0  0  0  0  0  0
    4.6768    6.1998    0.0000 O   0  0  0  0  0  0  0  0  0  0  0  0
    4.1638    7.6093    0.0000 C   0  0  0  0  0  0  0  0  0  0  0  0
    5.1281    8.7583    0.0000 O   0  0  0  0  0  0  0  0  0  0  0  0
    4.6152   10.1679    0.0000 C   0  0  0  0  0  0  0  0  0  0  0  0
    3.1380   10.4285    0.0000 O   0  0  0  0  0  0  0  0  0  0  0  0
    5.5795   11.3169    0.0000 C   0  0  0  0  0  0  0  0  0  0  0  0
    5.0666   12.7265    0.0000 C   0  0  0  0  0  0  0  0  0  0  0  0
    6.5436   10.1677    0.0000 C   0  0  0  0  0  0  0  0  0  0  0  0
    6.8786   12.0668    0.0000 C   0  0  0  0  0  0  0  0  0  0  0  0
  1  2  1  0  0  0  0 
  2  3  1  0  0  0  0 
  2  4  1  0  0  0  0 
  2  5  1  0  0  0  0 
  5  6  2  0  0  0  0 
  5  7  1  0  0  0  0 
  7  8  1  0  0  0  0 
  8  9  1  0  0  0  0 
  9 10  1  0  0  0  0 
 10 11  2  0  0  0  0 
 10 12  1  0  0  0  0 
 12 13  1  0  0  0  0 
 13 14  1  0  0  0  0 
 14 15  1  0  0  0  0 
 15 16  1  0  0  0  0 
 16 17  1  0  0  0  0 
 17 18  2  0  0  0  0 
 18 19  1  0  0  0  0 
 19 20  2  0  0  0  0 
 20 21  1  0  0  0  0 
 20 22  1  0  0  0  0 
 22 23  2  0  0  0  0 
 23 24  1  0  0  0  0 
 24 25  2  0  0  0  0 
 16 25  1  0  0  0  0 
 19 25  1  0  0  0  0 
 10 26  1  0  0  0  0 
 26 27  1  0  0  0  0 
 27 28  1  0  0  0  0 
 28 29  1  0  0  0  0 
 29 30  2  0  0  0  0 
 29 31  1  0  0  0  0 
 31 32  1  0  0  0  0 
 31 33  1  0  0  0  0 
 31 34  1  0  0  0  0 
M  END
> <SMILES>
CC(C)(C)C(=O)OCOP(=O)(COCCN1C=NC2=C(N)N=CN=C12)OCOC(=O)C(C)(C)C

$$$$

  CDK     01261921162D

 26 27  0  0  1  0  0  0  0  0999 V2000
   -2.7762    3.5805    0.0000 H   0  0  0  0  0  0  0  0  0  0  0  0
   -1.2990    3.3200    0.0000 C   0  0  1  0  0  0  0  0  0  0  0  0
    0.0000    2.5700    0.0000 C   0  0  0  0  0  0  0  0  0  0  0  0
    1.2990    3.3200    0.0000 C   0  0  0  0  0  0  0  0  0  0  0  0
    2.5986    2.5692    0.0000 C   0  0  0  0  0  0  0  0  0  0  0  0
    3.8976    3.3192    0.0000 C   0  0  0  0  0  0  0  0  0  0  0  0
    3.8971    4.8200    0.0000 C   0  0  0  0  0  0  0  0  0  0  0  0
    2.5976    5.5708    0.0000 C   0  0  0  0  0  0  0  0  0  0  0  0
    1.2986    4.8208    0.0000 C   0  0  0  0  0  0  0  0  0  0  0  0
   -1.2990    4.8200    0.0000 N   0  0  0  0  0  0  0  0  0  0  0  0
   -2.5981    5.5700    0.0000 C   0  0  0  0  0  0  0  0  0  0  0  0
   -3.8971    4.8200    0.0000 O   0  0  0  0  0  0  0  0  0  0  0  0
   -2.5981    7.0700    0.0000 C   0  0  1  0  0  0  0  0  0  0  0  0
   -1.1208    6.8097    0.0000 H   0  0  0  0  0  0  0  0  0  0  0  0
   -4.0761    6.8095    0.0000 C   0  0  0  0  0  0  0  0  0  0  0  0
   -5.0415    7.9587    0.0000 C   0  0  0  0  0  0  0  0  0  0  0  0
   -4.5287    9.3684    0.0000 C   0  0  1  0  0  0  0  0  0  0  0  0
   -4.5287   10.8684    0.0000 H   0  0  0  0  0  0  0  0  0  0  0  0
   -3.0507    9.6288    0.0000 C   0  0  0  0  0  0  0  0  0  0  0  0
   -2.0853    8.4796    0.0000 C   0  0  0  0  0  0  0  0  0  0  0  0
   -6.0060    9.6287    0.0000 C   0  0  0  0  0  0  0  0  0  0  0  0
   -6.5192   11.0382    0.0000 C   0  0  0  0  0  0  0  0  0  0  0  0
   -6.9700    8.4795    0.0000 C   0  0  0  0  0  0  0  0  0  0  0  0
   -1.8121    1.9105    0.0000 C   0  0  0  0  0  0  0  0  0  0  0  0
   -3.2893    1.6500    0.0000 O   0  0  0  0  0  0  0  0  0  0  0  0
   -0.8479    0.7614    0.0000 O   0  0  0  0  0  0  0  0  0  0  0  0
  2  1  1  1  0  0  0 
  2  3  1  0  0  0  0 
  3  4  1  0  0  0  0 
  4  5  2  0  0  0  0 
  5  6  1  0  0  0  0 
  6  7  2  0  0  0  0 
  7  8  1  0  0  0  0 
  8  9  2  0  0  0  0 
  4  9  1  0  0  0  0 
  2 10  1  6  0  0  0 
 10 11  2  0  0  0  0 
 11 12  1  4  0  0  0 
 13 11  1  1  0  0  0 
 13 14  1  6  0  0  0 
 13 15  1  0  0  0  0 
 15 16  1  0  0  0  0 
 16 17  1  0  0  0  0 
 17 18  1  1  0  0  0 
 17 19  1  0  0  0  0 
 19 20  1  0  0  0  0 
 13 20  1  0  0  0  0 
 17 21  1  6  0  0  0 
 21 22  1  0  0  0  0 
 21 23  1  0  0  0  0 
  2 24  1  0  0  0  0 
 24 25  1  0  0  0  0 
 24 26  2  0  0  0  0 
M  END
> <SMILES>
[H][C@](CC1=CC=CC=C1)(N=C(O)[C@@]1([H])CC[C@@]([H])(CC1)C(C)C)C(O)=O

$$$$

  CDK     01261921162D

 25 25  0  0  1  0  0  0  0  0999 V2000
   -7.8039   -2.5302    0.0000 C   0  0  0  0  0  0  0  0  0  0  0  0
   -6.3115   -2.6813    0.0000 C   0  0  0  0  0  0  0  0  0  0  0  0
   -5.4345   -1.4645    0.0000 C   0  0  0  0  0  0  0  0  0  0  0  0
   -3.9421   -1.6156    0.0000 C   0  0  0  0  0  0  0  0  0  0  0  0
   -3.0651   -0.3987    0.0000 C   0  0  0  0  0  0  0  0  0  0  0  0
   -1.5727   -0.5498    0.0000 C   0  0  2  0  0  0  0  0  0  0  0  0
   -0.9574   -1.9178    0.0000 O   0  0  0  0  0  0  0  0  0  0  0  0
   -0.6956    0.6670    0.0000 C   0  0  0  0  0  0  0  0  0  0  0  0
    0.7967    0.5159    0.0000 C   0  0  0  0  0  0  0  0  0  0  0  0
    1.6738    1.7327    0.0000 C   0  0  1  0  0  0  0  0  0  0  0  0
    1.2038    3.1427    0.0000 C   0  0  2  0  0  0  0  0  0  0  0  0
   -0.2271    3.5928    0.0000 O   0  0  0  0  0  0  0  0  0  0  0  0
    2.4138    4.0427    0.0000 C   0  0  0  0  0  0  0  0  0  0  0  0
    3.6438    3.1627    0.0000 C   0  0  0  0  0  0  0  0  0  0  0  0
    5.0695    3.6291    0.0000 O   0  0  0  0  0  0  0  0  0  0  0  0
    3.1738    1.7327    0.0000 C   0  0  2  0  0  0  0  0  0  0  0  0
    4.0534    0.5177    0.0000 C   0  0  0  0  0  0  0  0  0  0  0  0
    5.5455    0.6720    0.0000 C   0  0  0  0  0  0  0  0  0  0  0  0
    6.4251   -0.5430    0.0000 C   0  0  0  0  0  0  0  0  0  0  0  0
    7.9171   -0.3888    0.0000 C   0  0  0  0  0  0  0  0  0  0  0  0
    8.7968   -1.6038    0.0000 C   0  0  0  0  0  0  0  0  0  0  0  0
   10.2888   -1.4495    0.0000 C   0  0  0  0  0  0  0  0  0  0  0  0
   11.1684   -2.6645    0.0000 C   0  0  0  0  0  0  0  0  0  0  0  0
   12.6605   -2.5103    0.0000 O   0  0  0  0  0  0  0  0  0  0  0  0
   10.5560   -4.0338    0.0000 O   0  0  0  0  0  0  0  0  0  0  0  0
  1  2  1  0  0  0  0 
  2  3  1  0  0  0  0 
  3  4  1  0  0  0  0 
  4  5  1  0  0  0  0 
  5  6  1  0  0  0  0 
  6  7  1  1  0  0  0 
  6  8  1  0  0  0  0 
  8  9  2  3  0  0  0 
 10  9  1  1  0  0  0 
 10 11  1  0  0  0  0 
 11 12  1  6  0  0  0 
 11 13  1  0  0  0  0 
 13 14  1  0  0  0  0 
 14 15  2  0  0  0  0 
 14 16  1  0  0  0  0 
 10 16  1  0  0  0  0 
 16 17  1  6  0  0  0 
 17 18  1  0  0  0  0 
 18 19  1  0  0  0  0 
 19 20  1  0  0  0  0 
 20 21  1  0  0  0  0 
 21 22  1  0  0  0  0 
 22 23  1  0  0  0  0 
 23 24  1  0  0  0  0 
 23 25  2  0  0  0  0 
M  END
> <SMILES>
CCCCC[C@H](O)C=C[C@H]1[C@H](O)CC(=O)[C@@H]1CCCCCCC(O)=O

$$$$

  CDK     01261921162D

 17 18  0  0  0  0  0  0  0  0999 V2000
    2.5990   -3.7500    0.0000 C   0  0  0  0  0  0  0  0  0  0  0  0
    1.3000   -3.0000    0.0000 C   0  0  0  0  0  0  0  0  0  0  0  0
    1.3000   -1.5000    0.0000 N   0  0  0  0  0  0  0  0  0  0  0  0
    2.6000   -0.7500    0.0000 C   0  0  0  0  0  0  0  0  0  0  0  0
    2.6000    0.7500    0.0000 C   0  0  0  0  0  0  0  0  0  0  0  0
    3.8989    1.5002    0.0000 C   0  0  0  0  0  0  0  0  0  0  0  0
    5.1981    0.7504    0.0000 O   0  0  0  0  0  0  0  0  0  0  0  0
    3.8987    3.0002    0.0000 O   0  0  0  0  0  0  0  0  0  0  0  0
    1.3000    1.5000    0.0000 C   0  0  0  0  0  0  0  0  0  0  0  0
    1.3000    3.0000    0.0000 O   0  0  0  0  0  0  0  0  0  0  0  0
    0.0000    0.7500    0.0000 C   0  0  0  0  0  0  0  0  0  0  0  0
    0.0000   -0.7500    0.0000 C   0  0  0  0  0  0  0  0  0  0  0  0
   -1.3000   -1.5000    0.0000 N   0  0  0  0  0  0  0  0  0  0  0  0
   -2.6000   -0.7500    0.0000 C   0  0  0  0  0  0  0  0  0  0  0  0
   -3.8989   -1.5002    0.0000 C   0  0  0  0  0  0  0  0  0  0  0  0
   -2.6000    0.7500    0.0000 C   0  0  0  0  0  0  0  0  0  0  0  0
   -1.3000    1.5000    0.0000 C   0  0  0  0  0  0  0  0  0  0  0  0
  1  2  1  0  0  0  0 
  2  3  1  0  0  0  0 
  3  4  1  0  0  0  0 
  4  5  2  0  0  0  0 
  5  6  1  0  0  0  0 
  6  7  1  0  0  0  0 
  6  8  2  0  0  0  0 
  5  9  1  0  0  0  0 
  9 10  2  0  0  0  0 
  9 11  1  0  0  0  0 
 11 12  2  0  0  0  0 
  3 12  1  0  0  0  0 
 12 13  1  0  0  0  0 
 13 14  2  0  0  0  0 
 14 15  1  0  0  0  0 
 14 16  1  0  0  0  0 
 16 17  2  0  0  0  0 
 11 17  1  0  0  0  0 
M  END
> <SMILES>
CCN1C=C(C(O)=O)C(=O)C2=C1N=C(C)C=C2

$$$$

  CDK     01261921162D

 16 17  0  0  0  0  0  0  0  0999 V2000
   -3.4155   -1.2529    0.0000 N   0  0  0  0  0  0  0  0  0  0  0  0
   -2.0800   -0.5700    0.0000 C   0  0  0  0  0  0  0  0  0  0  0  0
   -2.0300    0.9200    0.0000 N   0  0  0  0  0  0  0  0  0  0  0  0
   -0.7100    1.6300    0.0000 C   0  0  0  0  0  0  0  0  0  0  0  0
   -0.6585    3.1291    0.0000 O   0  0  0  0  0  0  0  0  0  0  0  0
    0.5600    0.8300    0.0000 C   0  0  0  0  0  0  0  0  0  0  0  0
    0.5900   -0.6700    0.0000 C   0  0  0  0  0  0  0  0  0  0  0  0
   -0.8900   -1.3700    0.0000 N   0  0  0  0  0  0  0  0  0  0  0  0
    1.9200   -1.1800    0.0000 N   0  0  0  0  0  0  0  0  0  0  0  0
    2.3180   -2.6262    0.0000 C   0  0  0  0  0  0  0  0  0  0  0  0
    3.7695   -3.0046    0.0000 O   0  0  0  0  0  0  0  0  0  0  0  0
    4.1676   -4.4508    0.0000 C   0  0  0  0  0  0  0  0  0  0  0  0
    5.6191   -4.8292    0.0000 C   0  0  0  0  0  0  0  0  0  0  0  0
    6.0171   -6.2754    0.0000 O   0  0  0  0  0  0  0  0  0  0  0  0
    2.8500    0.0000    0.0000 C   0  0  0  0  0  0  0  0  0  0  0  0
    2.0100    1.2500    0.0000 N   0  0  0  0  0  0  0  0  0  0  0  0
  1  2  1  0  0  0  0 
  2  3  2  0  0  0  0 
  3  4  1  0  0  0  0 
  4  5  2  0  0  0  0 
  4  6  1  0  0  0  0 
  6  7  2  0  0  0  0 
  7  8  1  0  0  0  0 
  2  8  1  0  0  0  0 
  7  9  1  0  0  0  0 
  9 10  1  0  0  0  0 
 10 11  1  0  0  0  0 
 11 12  1  0  0  0  0 
 12 13  1  0  0  0  0 
 13 14  1  0  0  0  0 
  9 15  1  0  0  0  0 
 15 16  2  0  0  0  0 
  6 16  1  0  0  0  0 
M  END
> <SMILES>
NC1=NC(=O)C2=C(N1)N(COCCO)C=N2

$$$$

  CDK     01261921162D

 33 35  0  0  0  0  0  0  0  0999 V2000
    7.1200    3.9322    0.0000 C   0  0  0  0  0  0  0  0  0  0  0  0
    5.8184    4.6777    0.0000 N   0  0  0  0  0  0  0  0  0  0  0  0
    5.8132    6.1777    0.0000 C   0  0  0  0  0  0  0  0  0  0  0  0
    7.1096    6.9322    0.0000 C   0  0  0  0  0  0  0  0  0  0  0  0
    4.5115    6.9232    0.0000 C   0  0  0  0  0  0  0  0  0  0  0  0
    3.2150    6.1689    0.0000 C   0  0  0  0  0  0  0  0  0  0  0  0
    1.9130    6.9154    0.0000 C   0  0  0  0  0  0  0  0  0  0  0  0
    1.9075    8.4162    0.0000 C   0  0  0  0  0  0  0  0  0  0  0  0
    0.6059    9.1617    0.0000 N   0  0  0  0  0  0  0  0  0  0  0  0
    3.2041    9.1705    0.0000 C   0  0  0  0  0  0  0  0  0  0  0  0
    3.1993   10.6705    0.0000 O   0  0  0  0  0  0  0  0  0  0  0  0
    4.4960   11.4246    0.0000 C   0  0  0  0  0  0  0  0  0  0  0  0
    4.4953   12.9249    0.0000 C   0  0  0  0  0  0  0  0  0  0  0  0
    3.1942   13.6712    0.0000 N   0  0  0  0  0  0  0  0  0  0  0  0
    5.7902   13.6815    0.0000 C   0  0  0  0  0  0  0  0  0  0  0  0
    7.0856   12.9378    0.0000 C   0  0  0  0  0  0  0  0  0  0  0  0
    8.3811   13.6940    0.0000 N   0  0  0  0  0  0  0  0  0  0  0  0
    7.0963   11.4377    0.0000 C   0  0  0  0  0  0  0  0  0  0  0  0
    8.3999   10.6957    0.0000 O   0  0  0  0  0  0  0  0  0  0  0  0
    9.6943   11.4537    0.0000 C   0  0  0  0  0  0  0  0  0  0  0  0
    9.6853   12.9545    0.0000 O   0  0  0  0  0  0  0  0  0  0  0  0
   10.9800   13.7136    0.0000 C   0  0  0  0  0  0  0  0  0  0  0  0
   12.2838   12.9718    0.0000 C   0  0  0  0  0  0  0  0  0  0  0  0
   12.7880   14.3845    0.0000 C   0  0  0  0  0  0  0  0  0  0  0  0
   13.7626   12.7203    0.0000 O   0  0  0  0  0  0  0  0  0  0  0  0
   12.2928   11.4710    0.0000 C   0  0  0  0  0  0  0  0  0  0  0  0
   13.5965   10.7292    0.0000 N   0  0  0  0  0  0  0  0  0  0  0  0
   14.8908   11.4874    0.0000 C   0  0  0  0  0  0  0  0  0  0  0  0
   10.9980   10.7119    0.0000 C   0  0  0  0  0  0  0  0  0  0  0  0
   11.0077    9.2120    0.0000 O   0  0  0  0  0  0  0  0  0  0  0  0
    5.8014   10.6811    0.0000 C   0  0  0  0  0  0  0  0  0  0  0  0
    5.8098    9.1811    0.0000 O   0  0  0  0  0  0  0  0  0  0  0  0
    4.5061    8.4240    0.0000 O   0  0  0  0  0  0  0  0  0  0  0  0
  1  2  1  0  0  0  0 
  2  3  1  0  0  0  0 
  3  4  1  0  0  0  0 
  3  5  1  0  0  0  0 
  5  6  1  0  0  0  0 
  6  7  1  0  0  0  0 
  7  8  1  0  0  0  0 
  8  9  1  0  0  0  0 
  8 10  1  0  0  0  0 
 10 11  1  0  0  0  0 
 11 12  1  0  0  0  0 
 12 13  1  0  0  0  0 
 13 14  1  0  0  0  0 
 13 15  1  0  0  0  0 
 15 16  1  0  0  0  0 
 16 17  1  0  0  0  0 
 16 18  1  0  0  0  0 
 18 19  1  0  0  0  0 
 19 20  1  0  0  0  0 
 20 21  1  0  0  0  0 
 21 22  1  0  0  0  0 
 22 23  1  0  0  0  0 
 23 24  1  0  0  0  0 
 23 25  1  0  0  0  0 
 23 26  1  0  0  0  0 
 26 27  1  0  0  0  0 
 27 28  1  0  0  0  0 
 26 29  1  0  0  0  0 
 20 29  1  0  0  0  0 
 29 30  1  0  0  0  0 
 18 31  1  0  0  0  0 
 12 31  1  0  0  0  0 
 31 32  1  0  0  0  0 
 10 33  1  0  0  0  0 
  5 33  1  0  0  0  0 
M  END
> <SMILES>
CNC(C)C1CCC(N)C(OC2C(N)CC(N)C(OC3OCC(C)(O)C(NC)C3O)C2O)O1

$$$$

  CDK     01261921162D

 23 25  0  0  0  0  0  0  0  0999 V2000
    5.4932    5.6225    0.0000 C   0  0  0  0  0  0  0  0  0  0  0  0
    4.0015    5.7800    0.0000 C   0  0  0  0  0  0  0  0  0  0  0  0
    3.1193    4.5669    0.0000 C   0  0  0  0  0  0  0  0  0  0  0  0
    1.6276    4.7243    0.0000 C   0  0  0  0  0  0  0  0  0  0  0  0
    0.7453    3.5112    0.0000 C   0  0  0  0  0  0  0  0  0  0  0  0
    1.2053    2.0912    0.0000 C   0  0  0  0  0  0  0  0  0  0  0  0
    2.6331    1.6312    0.0000 O   0  0  0  0  0  0  0  0  0  0  0  0
   -0.0047    1.2012    0.0000 N   0  0  0  0  0  0  0  0  0  0  0  0
   -1.2147    2.0912    0.0000 N   0  0  0  0  0  0  0  0  0  0  0  0
   -0.7547    3.5112    0.0000 C   0  0  0  0  0  0  0  0  0  0  0  0
   -1.6369    4.7243    0.0000 O   0  0  0  0  0  0  0  0  0  0  0  0
   -2.6424    1.6312    0.0000 C   0  0  0  0  0  0  0  0  0  0  0  0
   -3.7549    2.6386    0.0000 C   0  0  0  0  0  0  0  0  0  0  0  0
   -5.1826    2.1786    0.0000 C   0  0  0  0  0  0  0  0  0  0  0  0
   -5.4979    0.7113    0.0000 C   0  0  0  0  0  0  0  0  0  0  0  0
   -4.3853   -0.2961    0.0000 C   0  0  0  0  0  0  0  0  0  0  0  0
   -2.9576    0.1639    0.0000 C   0  0  0  0  0  0  0  0  0  0  0  0
   -0.0047   -0.2988    0.0000 C   0  0  0  0  0  0  0  0  0  0  0  0
   -1.3047   -1.0488    0.0000 C   0  0  0  0  0  0  0  0  0  0  0  0
   -1.3047   -2.5488    0.0000 C   0  0  0  0  0  0  0  0  0  0  0  0
   -0.0047   -3.2988    0.0000 C   0  0  0  0  0  0  0  0  0  0  0  0
    1.2953   -2.5488    0.0000 C   0  0  0  0  0  0  0  0  0  0  0  0
    1.2953   -1.0488    0.0000 C   0  0  0  0  0  0  0  0  0  0  0  0
  1  2  1  0  0  0  0 
  2  3  1  0  0  0  0 
  3  4  1  0  0  0  0 
  4  5  1  0  0  0  0 
  5  6  1  0  0  0  0 
  6  7  2  0  0  0  0 
  6  8  1  0  0  0  0 
  8  9  1  0  0  0  0 
  9 10  1  0  0  0  0 
  5 10  1  0  0  0  0 
 10 11  2  0  0  0  0 
  9 12  1  0  0  0  0 
 12 13  2  0  0  0  0 
 13 14  1  0  0  0  0 
 14 15  2  0  0  0  0 
 15 16  1  0  0  0  0 
 16 17  2  0  0  0  0 
 12 17  1  0  0  0  0 
  8 18  1  0  0  0  0 
 18 19  2  0  0  0  0 
 19 20  1  0  0  0  0 
 20 21  2  0  0  0  0 
 21 22  1  0  0  0  0 
 22 23  2  0  0  0  0 
 18 23  1  0  0  0  0 
M  END
> <SMILES>
CCCCC1C(=O)N(N(C1=O)C1=CC=CC=C1)C1=CC=CC=C1

$$$$

  CDK     01261921162D

 13 13  0  0  0  0  0  0  0  0999 V2000
    4.1185    1.5046    0.0000 C   0  0  0  0  0  0  0  0  0  0  0  0
    2.9063    0.6212    0.0000 C   0  0  0  0  0  0  0  0  0  0  0  0
    3.0653   -0.8704    0.0000 O   0  0  0  0  0  0  0  0  0  0  0  0
    1.5351    1.2293    0.0000 N   0  0  0  0  0  0  0  0  0  0  0  0
    0.3229    0.3458    0.0000 C   0  0  0  0  0  0  0  0  0  0  0  0
    0.3229   -1.1542    0.0000 N   0  0  0  0  0  0  0  0  0  0  0  0
   -1.1071   -1.6242    0.0000 N   0  0  0  0  0  0  0  0  0  0  0  0
   -1.9871   -0.4042    0.0000 C   0  0  0  0  0  0  0  0  0  0  0  0
   -1.1071    0.8058    0.0000 S   0  0  0  0  0  0  0  0  0  0  0  0
   -3.4871   -0.4013    0.0000 S   0  0  0  0  0  0  0  0  0  0  0  0
   -4.2397   -1.6988    0.0000 N   0  0  0  0  0  0  0  0  0  0  0  0
   -3.2238    1.0754    0.0000 O   0  0  0  0  0  0  0  0  0  0  0  0
   -4.8957    0.1145    0.0000 O   0  0  0  0  0  0  0  0  0  0  0  0
  1  2  1  0  0  0  0 
  2  3  2  0  0  0  0 
  2  4  1  0  0  0  0 
  4  5  1  0  0  0  0 
  5  6  2  0  0  0  0 
  6  7  1  0  0  0  0 
  7  8  2  0  0  0  0 
  8  9  1  0  0  0  0 
  5  9  1  0  0  0  0 
  8 10  1  0  0  0  0 
 10 11  1  0  0  0  0 
 10 12  2  0  0  0  0 
 10 13  2  0  0  0  0 
M  END
> <SMILES>
CC(=O)NC1=NN=C(S1)S(N)(=O)=O

$$$$

  CDK     01261921162D

 19 21  0  0  0  0  0  0  0  0999 V2000
   -5.6080    1.9015    0.0000 C   0  0  0  0  0  0  0  0  0  0  0  0
   -5.1467    0.4742    0.0000 C   0  0  0  0  0  0  0  0  0  0  0  0
   -6.1522   -0.6389    0.0000 C   0  0  0  0  0  0  0  0  0  0  0  0
   -7.6189   -0.3247    0.0000 O   0  0  0  0  0  0  0  0  0  0  0  0
   -5.6910   -2.0662    0.0000 O   0  0  0  0  0  0  0  0  0  0  0  0
   -3.6800    0.1600    0.0000 C   0  0  0  0  0  0  0  0  0  0  0  0
   -2.6800    1.2700    0.0000 C   0  0  0  0  0  0  0  0  0  0  0  0
   -1.2100    0.9600    0.0000 C   0  0  0  0  0  0  0  0  0  0  0  0
   -0.7500   -0.4700    0.0000 C   0  0  0  0  0  0  0  0  0  0  0  0
   -1.7500   -1.5800    0.0000 C   0  0  0  0  0  0  0  0  0  0  0  0
   -3.2200   -1.2700    0.0000 C   0  0  0  0  0  0  0  0  0  0  0  0
    0.7500   -0.4700    0.0000 C   0  0  0  0  0  0  0  0  0  0  0  0
    1.2100    0.9600    0.0000 C   0  0  0  0  0  0  0  0  0  0  0  0
   -0.0000    1.8400    0.0000 N   0  0  0  0  0  0  0  0  0  0  0  0
    2.6800    1.2700    0.0000 C   0  0  0  0  0  0  0  0  0  0  0  0
    3.6800    0.1600    0.0000 C   0  0  0  0  0  0  0  0  0  0  0  0
    3.2200   -1.2700    0.0000 C   0  0  0  0  0  0  0  0  0  0  0  0
    4.2244   -2.3840    0.0000 Cl  0  0  0  0  0  0  0  0  0  0  0  0
    1.7500   -1.5800    0.0000 C   0  0  0  0  0  0  0  0  0  0  0  0
  1  2  1  0  0  0  0 
  2  3  1  0  0  0  0 
  3  4  1  0  0  0  0 
  3  5  2  0  0  0  0 
  2  6  1  0  0  0  0 
  6  7  2  0  0  0  0 
  7  8  1  0  0  0  0 
  8  9  2  0  0  0  0 
  9 10  1  0  0  0  0 
 10 11  2  0  0  0  0 
  6 11  1  0  0  0  0 
  9 12  1  0  0  0  0 
 12 13  2  0  0  0  0 
 13 14  1  0  0  0  0 
  8 14  1  0  0  0  0 
 13 15  1  0  0  0  0 
 15 16  2  0  0  0  0 
 16 17  1  0  0  0  0 
 17 18  1  0  0  0  0 
 17 19  2  0  0  0  0 
 12 19  1  0  0  0  0 
M  END
> <SMILES>
CC(C(O)=O)C1=CC2=C(C=C1)C1=C(N2)C=CC(Cl)=C1

$$$$

  CDK     01261921162D

 19 21  0  0  0  0  0  0  0  0999 V2000
    3.5642   -3.7585    0.0000 C   0  0  0  0  0  0  0  0  0  0  0  0
    2.2701   -3.0000    0.0000 C   0  0  0  0  0  0  0  0  0  0  0  0
    2.2800   -1.5000    0.0000 N   0  0  0  0  0  0  0  0  0  0  0  0
    3.6100   -0.7500    0.0000 N   0  0  0  0  0  0  0  0  0  0  0  0
    3.6100    0.7500    0.0000 C   0  0  0  0  0  0  0  0  0  0  0  0
    4.9095    1.4992    0.0000 C   0  0  0  0  0  0  0  0  0  0  0  0
    6.2081    0.7484    0.0000 O   0  0  0  0  0  0  0  0  0  0  0  0
    4.9104    2.9992    0.0000 O   0  0  0  0  0  0  0  0  0  0  0  0
    2.2800    1.5200    0.0000 C   0  0  0  0  0  0  0  0  0  0  0  0
    2.2700    3.0200    0.0000 O   0  0  0  0  0  0  0  0  0  0  0  0
    0.9900    0.7500    0.0000 C   0  0  0  0  0  0  0  0  0  0  0  0
   -0.3100    1.5000    0.0000 C   0  0  0  0  0  0  0  0  0  0  0  0
   -1.6000    0.7400    0.0000 C   0  0  0  0  0  0  0  0  0  0  0  0
   -1.6000   -0.7500    0.0000 C   0  0  0  0  0  0  0  0  0  0  0  0
   -3.0200   -1.2200    0.0000 O   0  0  0  0  0  0  0  0  0  0  0  0
   -3.9100   -0.0100    0.0000 C   0  0  0  0  0  0  0  0  0  0  0  0
   -3.0200    1.2100    0.0000 O   0  0  0  0  0  0  0  0  0  0  0  0
   -0.3100   -1.5000    0.0000 C   0  0  0  0  0  0  0  0  0  0  0  0
    0.9900   -0.7500    0.0000 C   0  0  0  0  0  0  0  0  0  0  0  0
  1  2  1  0  0  0  0 
  2  3  1  0  0  0  0 
  3  4  1  0  0  0  0 
  4  5  2  0  0  0  0 
  5  6  1  0  0  0  0 
  6  7  1  0  0  0  0 
  6  8  2  0  0  0  0 
  5  9  1  0  0  0  0 
  9 10  2  0  0  0  0 
  9 11  1  0  0  0  0 
 11 12  2  0  0  0  0 
 12 13  1  0  0  0  0 
 13 14  2  0  0  0  0 
 14 15  1  0  0  0  0 
 15 16  1  0  0  0  0 
 16 17  1  0  0  0  0 
 13 17  1  0  0  0  0 
 14 18  1  0  0  0  0 
 18 19  2  0  0  0  0 
  3 19  1  0  0  0  0 
 11 19  1  0  0  0  0 
M  END
> <SMILES>
CCN1N=C(C(O)=O)C(=O)C2=CC3=C(OCO3)C=C12

$$$$

  CDK     01261921162D

 21 21  0  0  0  0  0  0  0  0999 V2000
   11.3779   -2.0782    0.0000 C   0  0  0  0  0  0  0  0  0  0  0  0
   10.2619   -1.0759    0.0000 N   0  0  0  0  0  0  0  0  0  0  0  0
    8.8359   -1.5411    0.0000 C   0  0  0  0  0  0  0  0  0  0  0  0
    7.7199   -0.5388    0.0000 N   0  0  0  0  0  0  0  0  0  0  0  0
    6.2939   -1.0041    0.0000 C   0  0  0  0  0  0  0  0  0  0  0  0
    5.1780   -0.0018    0.0000 C   0  0  0  0  0  0  0  0  0  0  0  0
    3.7520   -0.4670    0.0000 S   0  0  0  0  0  0  0  0  0  0  0  0
    2.6360    0.5353    0.0000 C   0  0  0  0  0  0  0  0  0  0  0  0
    1.2100    0.0700    0.0000 C   0  0  0  0  0  0  0  0  0  0  0  0
    0.7500   -1.3600    0.0000 C   0  0  0  0  0  0  0  0  0  0  0  0
   -0.7500   -1.3600    0.0000 C   0  0  0  0  0  0  0  0  0  0  0  0
   -1.2100    0.0700    0.0000 C   0  0  0  0  0  0  0  0  0  0  0  0
   -2.6360    0.5353    0.0000 C   0  0  0  0  0  0  0  0  0  0  0  0
   -3.7520   -0.4670    0.0000 N   0  0  0  0  0  0  0  0  0  0  0  0
   -5.1780   -0.0018    0.0000 C   0  0  0  0  0  0  0  0  0  0  0  0
   -3.4419   -1.9347    0.0000 C   0  0  0  0  0  0  0  0  0  0  0  0
    0.0000    0.9500    0.0000 O   0  0  0  0  0  0  0  0  0  0  0  0
    8.5258   -3.0087    0.0000 C   0  0  0  0  0  0  0  0  0  0  0  0
    9.6418   -4.0111    0.0000 N   0  3  0  0  0  0  0  0  0  0  0  0
   11.0678   -3.5458    0.0000 O   0  5  0  0  0  0  0  0  0  0  0  0
    9.3317   -5.4787    0.0000 O   0  0  0  0  0  0  0  0  0  0  0  0
  1  2  1  0  0  0  0 
  2  3  1  4  0  0  0 
  3  4  1  0  0  0  0 
  4  5  1  0  0  0  0 
  5  6  1  0  0  0  0 
  6  7  1  0  0  0  0 
  7  8  1  0  0  0  0 
  8  9  1  0  0  0  0 
  9 10  2  0  0  0  0 
 10 11  1  0  0  0  0 
 11 12  2  0  0  0  0 
 12 13  1  0  0  0  0 
 13 14  1  0  0  0  0 
 14 15  1  0  0  0  0 
 14 16  1  0  0  0  0 
 12 17  1  0  0  0  0 
  9 17  1  0  0  0  0 
  3 18  2  0  0  0  0 
 18 19  1  0  0  0  0 
 19 20  1  0  0  0  0 
 19 21  2  0  0  0  0 
M  CHG  1  19   1
M  CHG  1  20  -1
M  END
> <SMILES>
CNC(NCCSCC1=CC=C(CN(C)C)O1)=C/[N+]([O-])=O

$$$$

  CDK     01261921162D

 17 18  0  0  0  0  0  0  0  0999 V2000
   -5.1981    0.7547    0.0000 N   0  0  0  0  0  0  0  0  0  0  0  0
   -3.8977    1.5024    0.0000 S   0  0  0  0  0  0  0  0  0  0  0  0
   -2.9314    2.6497    0.0000 O   0  0  0  0  0  0  0  0  0  0  0  0
   -4.8598    2.6532    0.0000 O   0  0  0  0  0  0  0  0  0  0  0  0
   -2.6000    0.7500    0.0000 C   0  0  0  0  0  0  0  0  0  0  0  0
   -2.6000   -0.7500    0.0000 C   0  0  0  0  0  0  0  0  0  0  0  0
   -3.8977   -1.5024    0.0000 Cl  0  0  0  0  0  0  0  0  0  0  0  0
   -1.2900   -1.5000    0.0000 C   0  0  0  0  0  0  0  0  0  0  0  0
    0.0000   -0.7500    0.0000 C   0  0  0  0  0  0  0  0  0  0  0  0
    1.3000   -1.5000    0.0000 N   0  0  0  0  0  0  0  0  0  0  0  0
    2.6000   -0.7500    0.0000 C   0  0  0  0  0  0  0  0  0  0  0  0
    2.6000    0.7500    0.0000 N   0  0  0  0  0  0  0  0  0  0  0  0
    1.3000    1.5000    0.0000 S   0  0  0  0  0  0  0  0  0  0  0  0
    2.2641    2.6492    0.0000 O   0  0  0  0  0  0  0  0  0  0  0  0
    0.3359    2.6492    0.0000 O   0  0  0  0  0  0  0  0  0  0  0  0
    0.0000    0.7500    0.0000 C   0  0  0  0  0  0  0  0  0  0  0  0
   -1.2900    1.5000    0.0000 C   0  0  0  0  0  0  0  0  0  0  0  0
  1  2  1  0  0  0  0 
  2  3  2  0  0  0  0 
  2  4  2  0  0  0  0 
  2  5  1  0  0  0  0 
  5  6  2  0  0  0  0 
  6  7  1  0  0  0  0 
  6  8  1  0  0  0  0 
  8  9  2  0  0  0  0 
  9 10  1  0  0  0  0 
 10 11  1  0  0  0  0 
 11 12  2  0  0  0  0 
 12 13  1  0  0  0  0 
 13 14  2  0  0  0  0 
 13 15  2  0  0  0  0 
 13 16  1  0  0  0  0 
  9 16  1  0  0  0  0 
 16 17  2  0  0  0  0 
  5 17  1  0  0  0  0 
M  END
> <SMILES>
NS(=O)(=O)C1=C(Cl)C=C2NC=NS(=O)(=O)C2=C1

$$$$

  CDK     01261921162D

 17 19  0  0  1  0  0  0  0  0999 V2000
    2.7502   -7.5939    0.0000 O   0  0  0  0  0  0  0  0  0  0  0  0
    1.7396   -6.4854    0.0000 C   0  0  0  0  0  0  0  0  0  0  0  0
    2.1943   -5.0560    0.0000 C   0  0  2  0  0  0  0  0  0  0  0  0
    3.6126   -4.5907    0.0000 C   0  0  0  0  0  0  0  0  0  0  0  0
    3.6070   -3.0907    0.0000 C   0  0  0  0  0  0  0  0  0  0  0  0
    2.1853   -2.6360    0.0000 C   0  0  1  0  0  0  0  0  0  0  0  0
    1.2998   -3.8493    0.0000 O   0  0  0  0  0  0  0  0  0  0  0  0
    1.7200   -1.2100    0.0000 N   0  0  0  0  0  0  0  0  0  0  0  0
    2.6000    0.0000    0.0000 C   0  0  0  0  0  0  0  0  0  0  0  0
    1.7200    1.2100    0.0000 N   0  0  0  0  0  0  0  0  0  0  0  0
    0.2900    0.7500    0.0000 C   0  0  0  0  0  0  0  0  0  0  0  0
    0.2900   -0.7500    0.0000 C   0  0  0  0  0  0  0  0  0  0  0  0
   -1.0100   -1.5000    0.0000 N   0  0  0  0  0  0  0  0  0  0  0  0
   -2.3100   -0.7500    0.0000 C   0  0  0  0  0  0  0  0  0  0  0  0
   -2.3100    0.7500    0.0000 N   0  0  0  0  0  0  0  0  0  0  0  0
   -1.0100    1.5000    0.0000 C   0  0  0  0  0  0  0  0  0  0  0  0
   -1.0100    3.0000    0.0000 O   0  0  0  0  0  0  0  0  0  0  0  0
  1  2  1  0  0  0  0 
  3  2  1  1  0  0  0 
  3  4  1  0  0  0  0 
  4  5  1  0  0  0  0 
  5  6  1  0  0  0  0 
  6  7  1  0  0  0  0 
  3  7  1  0  0  0  0 
  6  8  1  1  0  0  0 
  8  9  1  0  0  0  0 
  9 10  2  0  0  0  0 
 10 11  1  0  0  0  0 
 11 12  2  0  0  0  0 
  8 12  1  0  0  0  0 
 12 13  1  0  0  0  0 
 13 14  1  0  0  0  0 
 14 15  2  0  0  0  0 
 15 16  1  0  0  0  0 
 11 16  1  0  0  0  0 
 16 17  2  0  0  0  0 
M  END
> <SMILES>
OC[C@@H]1CC[C@@H](O1)N1C=NC2=C1NC=NC2=O

$$$$

  CDK     01261921162D

 19 19  0  0  0  0  0  0  0  0999 V2000
    6.4962   -0.7512    0.0000 C   0  0  0  0  0  0  0  0  0  0  0  0
    5.1970   -1.5010    0.0000 C   0  0  0  0  0  0  0  0  0  0  0  0
    3.8981   -0.7508    0.0000 C   0  0  0  0  0  0  0  0  0  0  0  0
    3.8983    0.7492    0.0000 C   0  0  0  0  0  0  0  0  0  0  0  0
    2.5989   -1.5006    0.0000 C   0  0  0  0  0  0  0  0  0  0  0  0
    2.5987   -3.0006    0.0000 O   0  0  0  0  0  0  0  0  0  0  0  0
    1.3000   -0.7504    0.0000 C   0  0  0  0  0  0  0  0  0  0  0  0
   -0.0000   -1.5004    0.0000 C   0  0  0  0  0  0  0  0  0  0  0  0
   -0.0000   -3.0004    0.0000 Cl  0  0  0  0  0  0  0  0  0  0  0  0
   -1.3000   -0.7504    0.0000 C   0  0  0  0  0  0  0  0  0  0  0  0
   -2.5989   -1.5006    0.0000 Cl  0  0  0  0  0  0  0  0  0  0  0  0
   -1.3000    0.7496    0.0000 C   0  0  0  0  0  0  0  0  0  0  0  0
   -2.5989    1.4998    0.0000 O   0  0  0  0  0  0  0  0  0  0  0  0
   -3.8981    0.7500    0.0000 C   0  0  0  0  0  0  0  0  0  0  0  0
   -5.1970    1.5002    0.0000 C   0  0  0  0  0  0  0  0  0  0  0  0
   -6.4962    0.7504    0.0000 O   0  0  0  0  0  0  0  0  0  0  0  0
   -5.1968    3.0002    0.0000 O   0  0  0  0  0  0  0  0  0  0  0  0
    0.0000    1.4996    0.0000 C   0  0  0  0  0  0  0  0  0  0  0  0
    1.3000    0.7496    0.0000 C   0  0  0  0  0  0  0  0  0  0  0  0
  1  2  1  0  0  0  0 
  2  3  1  0  0  0  0 
  3  4  2  0  0  0  0 
  3  5  1  0  0  0  0 
  5  6  2  0  0  0  0 
  5  7  1  0  0  0  0 
  7  8  2  0  0  0  0 
  8  9  1  0  0  0  0 
  8 10  1  0  0  0  0 
 10 11  1  0  0  0  0 
 10 12  2  0  0  0  0 
 12 13  1  0  0  0  0 
 13 14  1  0  0  0  0 
 14 15  1  0  0  0  0 
 15 16  1  0  0  0  0 
 15 17  2  0  0  0  0 
 12 18  1  0  0  0  0 
 18 19  2  0  0  0  0 
  7 19  1  0  0  0  0 
M  END
> <SMILES>
CCC(=C)C(=O)C1=C(Cl)C(Cl)=C(OCC(O)=O)C=C1

$$$$

  CDK     01261921162D

 19 20  0  0  0  0  0  0  0  0999 V2000
   -5.4374    2.5667    0.0000 C   0  0  0  0  0  0  0  0  0  0  0  0
   -4.1539    1.7904    0.0000 C   0  0  0  0  0  0  0  0  0  0  0  0
   -2.8391    2.5141    0.0000 C   0  0  0  0  0  0  0  0  0  0  0  0
   -2.8089    4.0138    0.0000 Cl  0  0  0  0  0  0  0  0  0  0  0  0
   -1.5544    1.7381    0.0000 C   0  0  0  0  0  0  0  0  0  0  0  0
   -0.2407    2.4620    0.0000 N   0  0  0  0  0  0  0  0  0  0  0  0
    1.0431    1.6862    0.0000 C   0  0  0  0  0  0  0  0  0  0  0  0
    0.9980    0.1880    0.0000 C   0  0  0  0  0  0  0  0  0  0  0  0
    2.3021   -0.5533    0.0000 C   0  0  0  0  0  0  0  0  0  0  0  0
    3.5866    0.1716    0.0000 C   0  0  0  0  0  0  0  0  0  0  0  0
    3.5994    1.6537    0.0000 C   0  0  0  0  0  0  0  0  0  0  0  0
    2.3277    2.4110    0.0000 C   0  0  0  0  0  0  0  0  0  0  0  0
    2.3452    3.9109    0.0000 C   0  0  0  0  0  0  0  0  0  0  0  0
    3.6529    4.6457    0.0000 O   0  0  0  0  0  0  0  0  0  0  0  0
    1.0550    4.6761    0.0000 O   0  0  0  0  0  0  0  0  0  0  0  0
   -1.5846    0.2384    0.0000 C   0  0  0  0  0  0  0  0  0  0  0  0
   -0.3011   -0.5378    0.0000 Cl  0  0  0  0  0  0  0  0  0  0  0  0
   -2.8995   -0.4853    0.0000 C   0  0  0  0  0  0  0  0  0  0  0  0
   -4.1841    0.2907    0.0000 C   0  0  0  0  0  0  0  0  0  0  0  0
  1  2  1  0  0  0  0 
  2  3  2  0  0  0  0 
  3  4  1  0  0  0  0 
  3  5  1  0  0  0  0 
  5  6  1  0  0  0  0 
  6  7  1  0  0  0  0 
  7  8  2  0  0  0  0 
  8  9  1  0  0  0  0 
  9 10  2  0  0  0  0 
 10 11  1  0  0  0  0 
 11 12  2  0  0  0  0 
  7 12  1  0  0  0  0 
 12 13  1  0  0  0  0 
 13 14  1  0  0  0  0 
 13 15  2  0  0  0  0 
  5 16  2  0  0  0  0 
 16 17  1  0  0  0  0 
 16 18  1  0  0  0  0 
 18 19  2  0  0  0  0 
  2 19  1  0  0  0  0 
M  END
> <SMILES>
CC1=C(Cl)C(NC2=CC=CC=C2C(O)=O)=C(Cl)C=C1

$$$$

  CDK     01261921162D

 13 13  0  0  0  0  0  0  0  0999 V2000
   -3.5733   -0.9379    0.0000 C   0  0  0  0  0  0  0  0  0  0  0  0
   -2.2742   -0.1881    0.0000 C   0  0  0  0  0  0  0  0  0  0  0  0
   -2.2739    1.3119    0.0000 O   0  0  0  0  0  0  0  0  0  0  0  0
   -0.9753   -0.9383    0.0000 O   0  0  0  0  0  0  0  0  0  0  0  0
    0.3239   -0.1885    0.0000 C   0  0  0  0  0  0  0  0  0  0  0  0
    0.3244    1.3123    0.0000 C   0  0  0  0  0  0  0  0  0  0  0  0
    1.6239    2.0632    0.0000 C   0  0  0  0  0  0  0  0  0  0  0  0
    2.9229    1.3132    0.0000 C   0  0  0  0  0  0  0  0  0  0  0  0
    2.9224   -0.1877    0.0000 C   0  0  0  0  0  0  0  0  0  0  0  0
    1.6229   -0.9385    0.0000 C   0  0  0  0  0  0  0  0  0  0  0  0
    1.6232   -2.4385    0.0000 C   0  0  0  0  0  0  0  0  0  0  0  0
    2.9223   -3.1883    0.0000 O   0  0  0  0  0  0  0  0  0  0  0  0
    0.3242   -3.1887    0.0000 O   0  0  0  0  0  0  0  0  0  0  0  0
  1  2  1  0  0  0  0 
  2  3  2  0  0  0  0 
  2  4  1  0  0  0  0 
  4  5  1  0  0  0  0 
  5  6  2  0  0  0  0 
  6  7  1  0  0  0  0 
  7  8  2  0  0  0  0 
  8  9  1  0  0  0  0 
  9 10  2  0  0  0  0 
  5 10  1  0  0  0  0 
 10 11  1  0  0  0  0 
 11 12  1  0  0  0  0 
 11 13  2  0  0  0  0 
M  END
> <SMILES>
CC(=O)OC1=CC=CC=C1C(O)=O

$$$$

  CDK     01261921162D

 17 18  0  0  0  0  0  0  0  0999 V2000
   -5.1981    0.7547    0.0000 N   0  0  0  0  0  0  0  0  0  0  0  0
   -3.8977    1.5024    0.0000 S   0  0  0  0  0  0  0  0  0  0  0  0
   -2.9314    2.6497    0.0000 O   0  0  0  0  0  0  0  0  0  0  0  0
   -4.8598    2.6532    0.0000 O   0  0  0  0  0  0  0  0  0  0  0  0
   -2.6000    0.7500    0.0000 C   0  0  0  0  0  0  0  0  0  0  0  0
   -2.6000   -0.7500    0.0000 C   0  0  0  0  0  0  0  0  0  0  0  0
   -3.8977   -1.5024    0.0000 Cl  0  0  0  0  0  0  0  0  0  0  0  0
   -1.2900   -1.5000    0.0000 C   0  0  0  0  0  0  0  0  0  0  0  0
    0.0000   -0.7500    0.0000 C   0  0  0  0  0  0  0  0  0  0  0  0
    1.3000   -1.5000    0.0000 N   0  0  0  0  0  0  0  0  0  0  0  0
    2.6000   -0.7500    0.0000 C   0  0  0  0  0  0  0  0  0  0  0  0
    2.6000    0.7500    0.0000 N   0  0  0  0  0  0  0  0  0  0  0  0
    1.3000    1.5000    0.0000 S   0  0  0  0  0  0  0  0  0  0  0  0
    2.2641    2.6492    0.0000 O   0  0  0  0  0  0  0  0  0  0  0  0
    0.3359    2.6492    0.0000 O   0  0  0  0  0  0  0  0  0  0  0  0
    0.0000    0.7500    0.0000 C   0  0  0  0  0  0  0  0  0  0  0  0
   -1.2900    1.5000    0.0000 C   0  0  0  0  0  0  0  0  0  0  0  0
  1  2  1  0  0  0  0 
  2  3  2  0  0  0  0 
  2  4  2  0  0  0  0 
  2  5  1  0  0  0  0 
  5  6  2  0  0  0  0 
  6  7  1  0  0  0  0 
  6  8  1  0  0  0  0 
  8  9  2  0  0  0  0 
  9 10  1  0  0  0  0 
 10 11  1  0  0  0  0 
 11 12  1  0  0  0  0 
 12 13  1  0  0  0  0 
 13 14  2  0  0  0  0 
 13 15  2  0  0  0  0 
 13 16  1  0  0  0  0 
  9 16  1  0  0  0  0 
 16 17  2  0  0  0  0 
  5 17  1  0  0  0  0 
M  END
> <SMILES>
NS(=O)(=O)C1=C(Cl)C=C2NCNS(=O)(=O)C2=C1

$$$$

  CDK     01261921162D

 18 19  0  0  0  0  0  0  0  0999 V2000
   -3.4155   -1.2529    0.0000 N   0  0  0  0  0  0  0  0  0  0  0  0
   -2.0800   -0.5700    0.0000 C   0  0  0  0  0  0  0  0  0  0  0  0
   -0.8900   -1.3700    0.0000 N   0  0  0  0  0  0  0  0  0  0  0  0
    0.5900   -0.6700    0.0000 C   0  0  0  0  0  0  0  0  0  0  0  0
    0.5600    0.8300    0.0000 C   0  0  0  0  0  0  0  0  0  0  0  0
    2.0100    1.2500    0.0000 N   0  0  0  0  0  0  0  0  0  0  0  0
    2.8500    0.0000    0.0000 C   0  0  0  0  0  0  0  0  0  0  0  0
    1.9200   -1.1800    0.0000 N   0  0  0  0  0  0  0  0  0  0  0  0
    2.3180   -2.6262    0.0000 C   0  0  0  0  0  0  0  0  0  0  0  0
    3.7695   -3.0046    0.0000 O   0  0  0  0  0  0  0  0  0  0  0  0
    4.1676   -4.4508    0.0000 C   0  0  0  0  0  0  0  0  0  0  0  0
    5.6191   -4.8292    0.0000 C   0  0  0  0  0  0  0  0  0  0  0  0
    6.0171   -6.2754    0.0000 O   0  0  0  0  0  0  0  0  0  0  0  0
    3.1141   -5.5187    0.0000 C   0  0  0  0  0  0  0  0  0  0  0  0
    3.5122   -6.9649    0.0000 O   0  0  0  0  0  0  0  0  0  0  0  0
   -0.7100    1.6300    0.0000 C   0  0  0  0  0  0  0  0  0  0  0  0
   -0.6585    3.1291    0.0000 O   0  0  0  0  0  0  0  0  0  0  0  0
   -2.0300    0.9200    0.0000 N   0  0  0  0  0  0  0  0  0  0  0  0
  1  2  1  0  0  0  0 
  2  3  2  0  0  0  0 
  3  4  1  0  0  0  0 
  4  5  2  0  0  0  0 
  5  6  1  0  0  0  0 
  6  7  2  0  0  0  0 
  7  8  1  0  0  0  0 
  4  8  1  0  0  0  0 
  8  9  1  0  0  0  0 
  9 10  1  0  0  0  0 
 10 11  1  0  0  0  0 
 11 12  1  0  0  0  0 
 12 13  1  0  0  0  0 
 11 14  1  0  0  0  0 
 14 15  1  0  0  0  0 
  5 16  1  0  0  0  0 
 16 17  2  0  0  0  0 
 16 18  1  0  0  0  0 
  2 18  1  0  0  0  0 
M  END
> <SMILES>
NC1=NC2=C(N=CN2COC(CO)CO)C(=O)N1

$$$$

  CDK     01261921162D

 33 35  0  0  0  0  0  0  0  0999 V2000
    9.5501    3.8029    0.0000 C   0  0  0  0  0  0  0  0  0  0  0  0
    8.8003    5.1021    0.0000 O   0  0  0  0  0  0  0  0  0  0  0  0
    9.5505    6.4010    0.0000 C   0  0  0  0  0  0  0  0  0  0  0  0
    8.8005    7.7010    0.0000 C   0  0  0  0  0  0  0  0  0  0  0  0
    9.5505    9.0010    0.0000 C   0  0  0  0  0  0  0  0  0  0  0  0
   11.0505    9.0010    0.0000 C   0  0  0  0  0  0  0  0  0  0  0  0
   11.8007   10.2999    0.0000 Cl  0  0  0  0  0  0  0  0  0  0  0  0
   11.8005    7.7010    0.0000 C   0  0  0  0  0  0  0  0  0  0  0  0
   11.0505    6.4010    0.0000 C   0  0  0  0  0  0  0  0  0  0  0  0
    7.3005    7.7010    0.0000 C   0  0  0  0  0  0  0  0  0  0  0  0
    6.5505    6.4019    0.0000 O   0  0  0  0  0  0  0  0  0  0  0  0
    6.5505    9.0000    0.0000 N   0  0  0  0  0  0  0  0  0  0  0  0
    5.0505    9.0000    0.0000 C   0  0  0  0  0  0  0  0  0  0  0  0
    4.3005   10.2990    0.0000 C   0  0  0  0  0  0  0  0  0  0  0  0
    2.8005   10.2990    0.0000 C   0  0  0  0  0  0  0  0  0  0  0  0
    2.0499   11.5987    0.0000 C   0  0  0  0  0  0  0  0  0  0  0  0
    0.5490   11.5994    0.0000 C   0  0  0  0  0  0  0  0  0  0  0  0
   -0.2012   10.3005    0.0000 C   0  0  0  0  0  0  0  0  0  0  0  0
    0.5494    9.0008    0.0000 C   0  0  0  0  0  0  0  0  0  0  0  0
    2.0503    9.0001    0.0000 C   0  0  0  0  0  0  0  0  0  0  0  0
   -1.7012   10.3005    0.0000 S   0  0  0  0  0  0  0  0  0  0  0  0
   -3.1107    9.7875    0.0000 O   0  0  0  0  0  0  0  0  0  0  0  0
   -1.4407    8.8233    0.0000 O   0  0  0  0  0  0  0  0  0  0  0  0
   -2.4512   11.5995    0.0000 N   0  0  0  0  0  0  0  0  0  0  0  0
   -3.9512   11.5995    0.0000 C   0  0  0  0  0  0  0  0  0  0  0  0
   -4.7012   10.3005    0.0000 O   0  0  0  0  0  0  0  0  0  0  0  0
   -4.7012   12.8986    0.0000 N   0  0  0  0  0  0  0  0  0  0  0  0
   -6.2012   12.8986    0.0000 C   0  0  0  0  0  0  0  0  0  0  0  0
   -6.9512   14.1986    0.0000 C   0  0  0  0  0  0  0  0  0  0  0  0
   -8.4512   14.1986    0.0000 C   0  0  0  0  0  0  0  0  0  0  0  0
   -9.2012   12.8986    0.0000 C   0  0  0  0  0  0  0  0  0  0  0  0
   -8.4512   11.5986    0.0000 C   0  0  0  0  0  0  0  0  0  0  0  0
   -6.9512   11.5986    0.0000 C   0  0  0  0  0  0  0  0  0  0  0  0
  1  2  1  0  0  0  0 
  2  3  1  0  0  0  0 
  3  4  2  0  0  0  0 
  4  5  1  0  0  0  0 
  5  6  2  0  0  0  0 
  6  7  1  0  0  0  0 
  6  8  1  0  0  0  0 
  8  9  2  0  0  0  0 
  3  9  1  0  0  0  0 
  4 10  1  0  0  0  0 
 10 11  2  0  0  0  0 
 10 12  1  0  0  0  0 
 12 13  1  0  0  0  0 
 13 14  1  0  0  0  0 
 14 15  1  0  0  0  0 
 15 16  2  0  0  0  0 
 16 17  1  0  0  0  0 
 17 18  2  0  0  0  0 
 18 19  1  0  0  0  0 
 19 20  2  0  0  0  0 
 15 20  1  0  0  0  0 
 18 21  1  0  0  0  0 
 21 22  2  0  0  0  0 
 21 23  2  0  0  0  0 
 21 24  1  0  0  0  0 
 24 25  1  0  0  0  0 
 25 26  2  0  0  0  0 
 25 27  1  0  0  0  0 
 27 28  1  0  0  0  0 
 28 29  1  0  0  0  0 
 29 30  1  0  0  0  0 
 30 31  1  0  0  0  0 
 31 32  1  0  0  0  0 
 32 33  1  0  0  0  0 
 28 33  1  0  0  0  0 
M  END
> <SMILES>
COC1=C(C=C(Cl)C=C1)C(=O)NCCC1=CC=C(C=C1)S(=O)(=O)NC(=O)NC1CCCCC1

$$$$

  CDK     01261921162D

 24 26  0  0  1  0  0  0  0  0999 V2000
   -0.7425    2.4519    0.0000 H   0  0  0  0  0  0  0  0  0  0  0  0
   -0.5100    0.9700    0.0000 C   0  0  1  0  0  0  0  0  0  0  0  0
    0.9200    1.4300    0.0000 S   0  0  0  0  0  0  0  0  0  0  0  0
    1.8000    0.2200    0.0000 C   0  0  0  0  0  0  0  0  0  0  0  0
    2.9146   -0.7839    0.0000 C   0  0  0  0  0  0  0  0  0  0  0  0
    2.9146    1.2239    0.0000 C   0  0  0  0  0  0  0  0  0  0  0  0
    0.9200   -0.9900    0.0000 C   0  0  1  0  0  0  0  0  0  0  0  0
   -0.5100   -0.5300    0.0000 N   0  0  0  0  0  0  0  0  0  0  0  0
   -2.0100   -0.5300    0.0000 C   0  0  0  0  0  0  0  0  0  0  0  0
   -3.0707   -1.5907    0.0000 O   0  0  0  0  0  0  0  0  0  0  0  0
   -2.0100    0.9700    0.0000 C   0  0  1  0  0  0  0  0  0  0  0  0
   -3.0707    2.0307    0.0000 N   0  0  0  0  0  0  0  0  0  0  0  0
   -4.5195    1.6424    0.0000 C   0  0  0  0  0  0  0  0  0  0  0  0
   -4.9078    0.1935    0.0000 O   0  0  0  0  0  0  0  0  0  0  0  0
   -5.5802    2.7031    0.0000 C   0  0  0  0  0  0  0  0  0  0  0  0
   -7.0291    2.3149    0.0000 C   0  0  0  0  0  0  0  0  0  0  0  0
   -7.4171    0.8650    0.0000 C   0  0  0  0  0  0  0  0  0  0  0  0
   -8.8660    0.4768    0.0000 C   0  0  0  0  0  0  0  0  0  0  0  0
   -9.9269    1.5384    0.0000 C   0  0  0  0  0  0  0  0  0  0  0  0
   -9.5389    2.9882    0.0000 C   0  0  0  0  0  0  0  0  0  0  0  0
   -8.0900    3.3765    0.0000 C   0  0  0  0  0  0  0  0  0  0  0  0
    1.3853   -2.4160    0.0000 C   0  0  0  0  0  0  0  0  0  0  0  0
    2.8529   -2.7261    0.0000 O   0  0  0  0  0  0  0  0  0  0  0  0
    0.3830   -3.5320    0.0000 O   0  0  0  0  0  0  0  0  0  0  0  0
  2  1  1  6  0  0  0 
  2  3  1  0  0  0  0 
  3  4  1  0  0  0  0 
  4  5  1  0  0  0  0 
  4  6  1  0  0  0  0 
  4  7  1  0  0  0  0 
  7  8  1  0  0  0  0 
  2  8  1  0  0  0  0 
  8  9  1  0  0  0  0 
  9 10  2  0  0  0  0 
  9 11  1  0  0  0  0 
  2 11  1  0  0  0  0 
 11 12  1  1  0  0  0 
 12 13  1  0  0  0  0 
 13 14  2  0  0  0  0 
 13 15  1  0  0  0  0 
 15 16  1  0  0  0  0 
 16 17  2  0  0  0  0 
 17 18  1  0  0  0  0 
 18 19  2  0  0  0  0 
 19 20  1  0  0  0  0 
 20 21  2  0  0  0  0 
 16 21  1  0  0  0  0 
  7 22  1  6  0  0  0 
 22 23  1  0  0  0  0 
 22 24  2  0  0  0  0 
M  END
> <SMILES>
[H][C@]12SC(C)(C)[C@@H](N1C(=O)[C@H]2NC(=O)CC1=CC=CC=C1)C(O)=O

$$$$

  CDK     01261921162D

 23 25  0  0  0  0  0  0  0  0999 V2000
    2.5990   -3.7500    0.0000 C   0  0  0  0  0  0  0  0  0  0  0  0
    1.3000   -3.0000    0.0000 C   0  0  0  0  0  0  0  0  0  0  0  0
    1.3000   -1.5000    0.0000 N   0  0  0  0  0  0  0  0  0  0  0  0
    2.6000   -0.7500    0.0000 C   0  0  0  0  0  0  0  0  0  0  0  0
    2.6000    0.7500    0.0000 C   0  0  0  0  0  0  0  0  0  0  0  0
    3.8989    1.5002    0.0000 C   0  0  0  0  0  0  0  0  0  0  0  0
    5.1981    0.7504    0.0000 O   0  0  0  0  0  0  0  0  0  0  0  0
    3.8987    3.0002    0.0000 O   0  0  0  0  0  0  0  0  0  0  0  0
    1.3000    1.5000    0.0000 C   0  0  0  0  0  0  0  0  0  0  0  0
    1.3000    3.0000    0.0000 O   0  0  0  0  0  0  0  0  0  0  0  0
   -0.0000    0.7500    0.0000 C   0  0  0  0  0  0  0  0  0  0  0  0
   -1.3000    1.5000    0.0000 C   0  0  0  0  0  0  0  0  0  0  0  0
   -2.6000    0.7500    0.0000 C   0  0  0  0  0  0  0  0  0  0  0  0
   -3.8989    1.5002    0.0000 F   0  0  0  0  0  0  0  0  0  0  0  0
   -2.6000   -0.7500    0.0000 C   0  0  0  0  0  0  0  0  0  0  0  0
   -1.3000   -1.5000    0.0000 C   0  0  0  0  0  0  0  0  0  0  0  0
   -0.0000   -0.7500    0.0000 C   0  0  0  0  0  0  0  0  0  0  0  0
   -3.8989   -1.5002    0.0000 N   0  0  0  0  0  0  0  0  0  0  0  0
   -3.8982   -3.0010    0.0000 C   0  0  0  0  0  0  0  0  0  0  0  0
   -5.1971   -3.7512    0.0000 C   0  0  0  0  0  0  0  0  0  0  0  0
   -6.4968   -3.0006    0.0000 N   0  0  0  0  0  0  0  0  0  0  0  0
   -6.4975   -1.4998    0.0000 C   0  0  0  0  0  0  0  0  0  0  0  0
   -5.1986   -0.7496    0.0000 C   0  0  0  0  0  0  0  0  0  0  0  0
  1  2  1  0  0  0  0 
  2  3  1  0  0  0  0 
  3  4  1  0  0  0  0 
  4  5  2  0  0  0  0 
  5  6  1  0  0  0  0 
  6  7  1  0  0  0  0 
  6  8  2  0  0  0  0 
  5  9  1  0  0  0  0 
  9 10  2  0  0  0  0 
  9 11  1  0  0  0  0 
 11 12  2  0  0  0  0 
 12 13  1  0  0  0  0 
 13 14  1  0  0  0  0 
 13 15  2  0  0  0  0 
 15 16  1  0  0  0  0 
 16 17  2  0  0  0  0 
  3 17  1  0  0  0  0 
 11 17  1  0  0  0  0 
 15 18  1  0  0  0  0 
 18 19  1  0  0  0  0 
 19 20  1  0  0  0  0 
 20 21  1  0  0  0  0 
 21 22  1  0  0  0  0 
 22 23  1  0  0  0  0 
 18 23  1  0  0  0  0 
M  END
> <SMILES>
CCN1C=C(C(O)=O)C(=O)C2=CC(F)=C(C=C12)N1CCNCC1

$$$$

  CDK     01261921162D

 26 28  0  0  1  0  0  0  0  0999 V2000
   -0.7425    2.4519    0.0000 H   0  0  0  0  0  0  0  0  0  0  0  0
   -0.5100    0.9700    0.0000 C   0  0  1  0  0  0  0  0  0  0  0  0
    0.9200    1.4300    0.0000 S   0  0  0  0  0  0  0  0  0  0  0  0
    1.8000    0.2200    0.0000 C   0  0  0  0  0  0  0  0  0  0  0  0
    2.9146   -0.7839    0.0000 C   0  0  0  0  0  0  0  0  0  0  0  0
    2.9146    1.2239    0.0000 C   0  0  0  0  0  0  0  0  0  0  0  0
    0.9200   -0.9900    0.0000 C   0  0  1  0  0  0  0  0  0  0  0  0
   -0.5100   -0.5300    0.0000 N   0  0  0  0  0  0  0  0  0  0  0  0
   -2.0100   -0.5300    0.0000 C   0  0  0  0  0  0  0  0  0  0  0  0
   -3.0707   -1.5907    0.0000 O   0  0  0  0  0  0  0  0  0  0  0  0
   -2.0100    0.9700    0.0000 C   0  0  1  0  0  0  0  0  0  0  0  0
   -3.0707    2.0307    0.0000 N   0  0  0  0  0  0  0  0  0  0  0  0
   -4.5195    1.6424    0.0000 C   0  0  0  0  0  0  0  0  0  0  0  0
   -4.9078    0.1935    0.0000 O   0  0  0  0  0  0  0  0  0  0  0  0
   -5.5802    2.7031    0.0000 C   0  0  2  0  0  0  0  0  0  0  0  0
   -7.0291    2.3149    0.0000 N   0  0  0  0  0  0  0  0  0  0  0  0
   -5.1920    4.1520    0.0000 C   0  0  0  0  0  0  0  0  0  0  0  0
   -6.2578    5.2074    0.0000 C   0  0  0  0  0  0  0  0  0  0  0  0
   -5.8972    6.6376    0.0000 C   0  0  0  0  0  0  0  0  0  0  0  0
   -4.4144    7.0691    0.0000 C   0  0  0  0  0  0  0  0  0  0  0  0
   -4.0453    8.5230    0.0000 O   0  0  0  0  0  0  0  0  0  0  0  0
   -3.3485    6.0137    0.0000 C   0  0  0  0  0  0  0  0  0  0  0  0
   -3.7655    4.5267    0.0000 C   0  0  0  0  0  0  0  0  0  0  0  0
    1.3853   -2.4160    0.0000 C   0  0  0  0  0  0  0  0  0  0  0  0
    2.8529   -2.7261    0.0000 O   0  0  0  0  0  0  0  0  0  0  0  0
    0.3830   -3.5320    0.0000 O   0  0  0  0  0  0  0  0  0  0  0  0
  2  1  1  6  0  0  0 
  2  3  1  0  0  0  0 
  3  4  1  0  0  0  0 
  4  5  1  0  0  0  0 
  4  6  1  0  0  0  0 
  4  7  1  0  0  0  0 
  7  8  1  0  0  0  0 
  2  8  1  0  0  0  0 
  8  9  1  0  0  0  0 
  9 10  2  0  0  0  0 
  9 11  1  0  0  0  0 
  2 11  1  0  0  0  0 
 11 12  1  1  0  0  0 
 12 13  1  0  0  0  0 
 13 14  2  0  0  0  0 
 13 15  1  0  0  0  0 
 15 16  1  6  0  0  0 
 15 17  1  0  0  0  0 
 17 18  2  0  0  0  0 
 18 19  1  0  0  0  0 
 19 20  2  0  0  0  0 
 20 21  1  0  0  0  0 
 20 22  1  0  0  0  0 
 22 23  2  0  0  0  0 
 17 23  1  0  0  0  0 
  7 24  1  6  0  0  0 
 24 25  1  0  0  0  0 
 24 26  2  0  0  0  0 
M  END
> <SMILES>
[H][C@]12SC(C)(C)[C@@H](N1C(=O)[C@H]2NC(=O)[C@H](N)C1=CC=C(O)C=C1)C(O)=O

$$$$

  CDK     01261921162D

 40 42  0  0  1  0  0  0  0  0999 V2000
    4.8722    1.7146    0.0000 C   0  0  0  0  0  0  0  0  0  0  0  0
    6.1709    2.4652    0.0000 N   0  0  0  0  0  0  0  0  0  0  0  0
    6.1702    3.9652    0.0000 C   0  0  1  0  0  0  0  0  0  0  0  0
    7.4695    4.7164    0.0000 C   0  0  2  0  0  0  0  0  0  0  0  0
    8.7688    3.9669    0.0000 O   0  0  0  0  0  0  0  0  0  0  0  0
    7.4695    6.2173    0.0000 C   0  0  1  0  0  0  0  0  0  0  0  0
    8.7684    6.9675    0.0000 O   0  0  0  0  0  0  0  0  0  0  0  0
    6.1702    6.9669    0.0000 C   0  0  2  0  0  0  0  0  0  0  0  0
    6.1695    8.4669    0.0000 C   0  0  0  0  0  0  0  0  0  0  0  0
    4.8701    9.2162    0.0000 O   0  0  0  0  0  0  0  0  0  0  0  0
    4.8709    6.2156    0.0000 O   0  0  0  0  0  0  0  0  0  0  0  0
    4.8709    4.7148    0.0000 C   0  0  1  0  0  0  0  0  0  0  0  0
    3.5720    3.9646    0.0000 O   0  0  0  0  0  0  0  0  0  0  0  0
    2.2728    4.7144    0.0000 C   0  0  1  0  0  0  0  0  0  0  0  0
    0.9091    4.1076    0.0000 C   0  0  2  0  0  0  0  0  0  0  0  0
    0.6017    2.6395    0.0000 O   0  0  0  0  0  0  0  0  0  0  0  0
   -0.8234    2.1715    0.0000 C   0  0  1  0  0  0  0  0  0  0  0  0
   -1.9415    3.1727    0.0000 C   0  0  2  0  0  0  0  0  0  0  0  0
   -1.6340    4.6408    0.0000 O   0  0  0  0  0  0  0  0  0  0  0  0
   -3.3667    2.7047    0.0000 C   0  0  1  0  0  0  0  0  0  0  0  0
   -4.4846    3.7048    0.0000 O   0  0  0  0  0  0  0  0  0  0  0  0
   -3.6737    1.2357    0.0000 C   0  0  2  0  0  0  0  0  0  0  0  0
   -5.0988    0.7677    0.0000 N   0  0  0  0  0  0  0  0  0  0  0  0
   -6.2167    1.7680    0.0000 C   0  0  0  0  0  0  0  0  0  0  0  0
   -7.6418    1.3000    0.0000 N   0  0  0  0  0  0  0  0  0  0  0  0
   -5.9093    3.2361    0.0000 N   0  0  0  0  0  0  0  0  0  0  0  0
   -2.5556    0.2345    0.0000 C   0  0  1  0  0  0  0  0  0  0  0  0
   -2.8631   -1.2336    0.0000 O   0  0  0  0  0  0  0  0  0  0  0  0
   -1.1304    0.7024    0.0000 C   0  0  2  0  0  0  0  0  0  0  0  0
   -0.0125   -0.2976    0.0000 N   0  0  0  0  0  0  0  0  0  0  0  0
   -0.3196   -1.7659    0.0000 C   0  0  0  0  0  0  0  0  0  0  0  0
    0.7984   -2.7659    0.0000 N   0  0  0  0  0  0  0  0  0  0  0  0
   -1.7446   -2.2340    0.0000 N   0  0  0  0  0  0  0  0  0  0  0  0
   -0.1032    5.2174    0.0000 O   0  0  0  0  0  0  0  0  0  0  0  0
    0.6547    6.5142    0.0000 C   0  0  1  0  0  0  0  0  0  0  0  0
    0.0471    7.8857    0.0000 C   0  0  0  0  0  0  0  0  0  0  0  0
    2.1152    6.2060    0.0000 C   0  0  1  0  0  0  0  0  0  0  0  0
    3.6152    6.2074    0.0000 O   0  0  0  0  0  0  0  0  0  0  0  0
    2.2702    7.6980    0.0000 C   0  0  0  0  0  0  0  0  0  0  0  0
    3.6398    8.3098    0.0000 O   0  0  0  0  0  0  0  0  0  0  0  0
  1  2  1  0  0  0  0 
  3  2  1  6  0  0  0 
  3  4  1  0  0  0  0 
  4  5  1  1  0  0  0 
  4  6  1  0  0  0  0 
  6  7  1  6  0  0  0 
  6  8  1  0  0  0  0 
  8  9  1  1  0  0  0 
  9 10  1  0  0  0  0 
  8 11  1  0  0  0  0 
 11 12  1  0  0  0  0 
  3 12  1  0  0  0  0 
 12 13  1  6  0  0  0 
 14 13  1  1  0  0  0 
 14 15  1  0  0  0  0 
 15 16  1  6  0  0  0 
 17 16  1  6  0  0  0 
 17 18  1  0  0  0  0 
 18 19  1  1  0  0  0 
 18 20  1  0  0  0  0 
 20 21  1  6  0  0  0 
 20 22  1  0  0  0  0 
 22 23  1  1  0  0  0 
 23 24  1  0  0  0  0 
 24 25  1  0  0  0  0 
 24 26  2  0  0  0  0 
 22 27  1  0  0  0  0 
 27 28  1  6  0  0  0 
 27 29  1  0  0  0  0 
 17 29  1  0  0  0  0 
 29 30  1  1  0  0  0 
 30 31  1  0  0  0  0 
 31 32  1  0  0  0  0 
 31 33  2  0  0  0  0 
 15 34  1  0  0  0  0 
 34 35  1  0  0  0  0 
 35 36  1  1  0  0  0 
 35 37  1  0  0  0  0 
 14 37  1  0  0  0  0 
 37 38  1  1  0  0  0 
 37 39  1  6  0  0  0 
 39 40  2  0  0  0  0 
M  END
> <SMILES>
CN[C@H]1[C@H](O)[C@@H](O)[C@H](CO)O[C@H]1O[C@H]1[C@H](O[C@H]2[C@H](O)[C@@H](O)[C@H](NC(N)=N)[C@@H](O)[C@@H]2NC(N)=N)O[C@@H](C)[C@]1(O)C=O

$$$$

  CDK     01261921162D

 18 18  0  0  0  0  0  0  0  0999 V2000
    2.5989   -0.7488    0.0000 C   0  0  0  0  0  0  0  0  0  0  0  0
    1.2998    0.0010    0.0000 C   0  0  0  0  0  0  0  0  0  0  0  0
    0.0008   -0.7492    0.0000 C   0  0  0  0  0  0  0  0  0  0  0  0
   -1.2983    0.0006    0.0000 C   0  0  0  0  0  0  0  0  0  0  0  0
   -2.5972   -0.7496    0.0000 N   0  0  0  0  0  0  0  0  0  0  0  0
   -3.8964    0.0002    0.0000 C   0  0  0  0  0  0  0  0  0  0  0  0
   -3.8966    1.5002    0.0000 O   0  0  0  0  0  0  0  0  0  0  0  0
   -5.1953   -0.7500    0.0000 N   0  0  0  0  0  0  0  0  0  0  0  0
   -6.4945   -0.0002    0.0000 S   0  0  0  0  0  0  0  0  0  0  0  0
   -5.5305    1.1490    0.0000 O   0  0  0  0  0  0  0  0  0  0  0  0
   -7.4588    1.1487    0.0000 O   0  0  0  0  0  0  0  0  0  0  0  0
   -7.7934   -0.7504    0.0000 C   0  0  0  0  0  0  0  0  0  0  0  0
   -7.7934   -2.2504    0.0000 C   0  0  0  0  0  0  0  0  0  0  0  0
   -9.0934   -3.0004    0.0000 C   0  0  0  0  0  0  0  0  0  0  0  0
  -10.3934   -2.2504    0.0000 C   0  0  0  0  0  0  0  0  0  0  0  0
  -11.6923   -3.0006    0.0000 C   0  0  0  0  0  0  0  0  0  0  0  0
  -10.3934   -0.7504    0.0000 C   0  0  0  0  0  0  0  0  0  0  0  0
   -9.0934   -0.0004    0.0000 C   0  0  0  0  0  0  0  0  0  0  0  0
  1  2  1  0  0  0  0 
  2  3  1  0  0  0  0 
  3  4  1  0  0  0  0 
  4  5  1  0  0  0  0 
  5  6  1  0  0  0  0 
  6  7  2  0  0  0  0 
  6  8  1  0  0  0  0 
  8  9  1  0  0  0  0 
  9 10  2  0  0  0  0 
  9 11  2  0  0  0  0 
  9 12  1  0  0  0  0 
 12 13  2  0  0  0  0 
 13 14  1  0  0  0  0 
 14 15  2  0  0  0  0 
 15 16  1  0  0  0  0 
 15 17  1  0  0  0  0 
 17 18  2  0  0  0  0 
 12 18  1  0  0  0  0 
M  END
> <SMILES>
CCCCNC(=O)NS(=O)(=O)C1=CC=C(C)C=C1

$$$$

  CDK     01261921162D

 26 29  0  0  1  0  0  0  0  0999 V2000
    1.3000   -3.7500    0.0000 C   0  0  0  0  0  0  0  0  0  0  0  0
    1.3000   -2.2500    0.0000 C   0  0  1  0  0  0  0  0  0  0  0  0
    2.6000   -1.5000    0.0000 C   0  0  0  0  0  0  0  0  0  0  0  0
    2.6000    0.0000    0.0000 O   0  0  0  0  0  0  0  0  0  0  0  0
    1.3000    0.7500    0.0000 C   0  0  0  0  0  0  0  0  0  0  0  0
   -0.0000    0.0000    0.0000 C   0  0  0  0  0  0  0  0  0  0  0  0
   -0.0000   -1.5000    0.0000 N   0  0  0  0  0  0  0  0  0  0  0  0
   -1.3000   -2.2500    0.0000 C   0  0  0  0  0  0  0  0  0  0  0  0
   -2.6000   -1.5000    0.0000 C   0  0  0  0  0  0  0  0  0  0  0  0
   -3.8989   -2.2502    0.0000 C   0  0  0  0  0  0  0  0  0  0  0  0
   -3.8987   -3.7502    0.0000 O   0  0  0  0  0  0  0  0  0  0  0  0
   -5.1981   -1.5004    0.0000 O   0  0  0  0  0  0  0  0  0  0  0  0
   -2.6000    0.0000    0.0000 C   0  0  0  0  0  0  0  0  0  0  0  0
   -3.8989    0.7502    0.0000 O   0  0  0  0  0  0  0  0  0  0  0  0
   -1.3000    0.7500    0.0000 C   0  0  0  0  0  0  0  0  0  0  0  0
   -1.3000    2.2500    0.0000 C   0  0  0  0  0  0  0  0  0  0  0  0
   -0.0000    3.0000    0.0000 C   0  0  0  0  0  0  0  0  0  0  0  0
    0.0000    4.5000    0.0000 F   0  0  0  0  0  0  0  0  0  0  0  0
    1.3000    2.2500    0.0000 C   0  0  0  0  0  0  0  0  0  0  0  0
    2.5989    3.0002    0.0000 N   0  0  0  0  0  0  0  0  0  0  0  0
    3.8989    2.2502    0.0000 C   0  0  0  0  0  0  0  0  0  0  0  0
    5.1989    3.0002    0.0000 C   0  0  0  0  0  0  0  0  0  0  0  0
    5.1989    4.5002    0.0000 N   0  0  0  0  0  0  0  0  0  0  0  0
    6.4978    5.2504    0.0000 C   0  0  0  0  0  0  0  0  0  0  0  0
    3.8989    5.2502    0.0000 C   0  0  0  0  0  0  0  0  0  0  0  0
    2.5989    4.5002    0.0000 C   0  0  0  0  0  0  0  0  0  0  0  0
  2  1  1  6  0  0  0 
  2  3  1  0  0  0  0 
  3  4  1  0  0  0  0 
  4  5  1  0  0  0  0 
  5  6  2  0  0  0  0 
  6  7  1  0  0  0  0 
  2  7  1  0  0  0  0 
  7  8  1  0  0  0  0 
  8  9  2  0  0  0  0 
  9 10  1  0  0  0  0 
 10 11  1  0  0  0  0 
 10 12  2  0  0  0  0 
  9 13  1  0  0  0  0 
 13 14  2  0  0  0  0 
 13 15  1  0  0  0  0 
  6 15  1  0  0  0  0 
 15 16  2  0  0  0  0 
 16 17  1  0  0  0  0 
 17 18  1  0  0  0  0 
 17 19  2  0  0  0  0 
  5 19  1  0  0  0  0 
 19 20  1  0  0  0  0 
 20 21  1  0  0  0  0 
 21 22  1  0  0  0  0 
 22 23  1  0  0  0  0 
 23 24  1  0  0  0  0 
 23 25  1  0  0  0  0 
 25 26  1  0  0  0  0 
 20 26  1  0  0  0  0 
M  END
> <SMILES>
C[C@H]1COC2=C3N1C=C(C(O)=O)C(=O)C3=CC(F)=C2N1CCN(C)CC1

$$$$

  CDK     01261921162D

 30 33  0  0  1  0  0  0  0  0999 V2000
   -0.7425    2.4519    0.0000 H   0  0  0  0  0  0  0  0  0  0  0  0
   -0.5100    0.9700    0.0000 C   0  0  1  0  0  0  0  0  0  0  0  0
    0.9200    1.4300    0.0000 S   0  0  0  0  0  0  0  0  0  0  0  0
    1.8000    0.2200    0.0000 C   0  0  0  0  0  0  0  0  0  0  0  0
    2.9146   -0.7839    0.0000 C   0  0  0  0  0  0  0  0  0  0  0  0
    2.9146    1.2239    0.0000 C   0  0  0  0  0  0  0  0  0  0  0  0
    0.9200   -0.9900    0.0000 C   0  0  1  0  0  0  0  0  0  0  0  0
   -0.5100   -0.5300    0.0000 N   0  0  0  0  0  0  0  0  0  0  0  0
   -2.0100   -0.5300    0.0000 C   0  0  0  0  0  0  0  0  0  0  0  0
   -3.0707   -1.5907    0.0000 O   0  0  0  0  0  0  0  0  0  0  0  0
   -2.0100    0.9700    0.0000 C   0  0  1  0  0  0  0  0  0  0  0  0
   -3.0707    2.0307    0.0000 N   0  0  0  0  0  0  0  0  0  0  0  0
   -4.5195    1.6424    0.0000 C   0  0  0  0  0  0  0  0  0  0  0  0
   -4.9078    0.1935    0.0000 O   0  0  0  0  0  0  0  0  0  0  0  0
   -5.5802    2.7031    0.0000 C   0  0  0  0  0  0  0  0  0  0  0  0
   -5.3474    4.1775    0.0000 C   0  0  0  0  0  0  0  0  0  0  0  0
   -4.0089    4.8545    0.0000 C   0  0  0  0  0  0  0  0  0  0  0  0
   -6.6814    4.8678    0.0000 O   0  0  0  0  0  0  0  0  0  0  0  0
   -7.7377    3.8000    0.0000 N   0  0  0  0  0  0  0  0  0  0  0  0
   -7.0618    2.4691    0.0000 C   0  0  0  0  0  0  0  0  0  0  0  0
   -7.7440    1.1332    0.0000 C   0  0  0  0  0  0  0  0  0  0  0  0
   -6.9253   -0.1291    0.0000 C   0  0  0  0  0  0  0  0  0  0  0  0
   -7.6196   -1.4588    0.0000 C   0  0  0  0  0  0  0  0  0  0  0  0
   -9.1195   -1.5442    0.0000 C   0  0  0  0  0  0  0  0  0  0  0  0
   -9.9336   -0.2731    0.0000 C   0  0  0  0  0  0  0  0  0  0  0  0
   -9.2393    1.0566    0.0000 C   0  0  0  0  0  0  0  0  0  0  0  0
  -10.0492    2.3191    0.0000 Cl  0  0  0  0  0  0  0  0  0  0  0  0
    1.3853   -2.4160    0.0000 C   0  0  0  0  0  0  0  0  0  0  0  0
    2.8529   -2.7261    0.0000 O   0  0  0  0  0  0  0  0  0  0  0  0
    0.3830   -3.5320    0.0000 O   0  0  0  0  0  0  0  0  0  0  0  0
  2  1  1  6  0  0  0 
  2  3  1  0  0  0  0 
  3  4  1  0  0  0  0 
  4  5  1  0  0  0  0 
  4  6  1  0  0  0  0 
  4  7  1  0  0  0  0 
  7  8  1  0  0  0  0 
  2  8  1  0  0  0  0 
  8  9  1  0  0  0  0 
  9 10  2  0  0  0  0 
  9 11  1  0  0  0  0 
  2 11  1  0  0  0  0 
 11 12  1  1  0  0  0 
 12 13  1  0  0  0  0 
 13 14  2  0  0  0  0 
 13 15  1  0  0  0  0 
 15 16  2  0  0  0  0 
 16 17  1  0  0  0  0 
 16 18  1  0  0  0  0 
 18 19  1  0  0  0  0 
 19 20  2  0  0  0  0 
 15 20  1  0  0  0  0 
 20 21  1  0  0  0  0 
 21 22  2  0  0  0  0 
 22 23  1  0  0  0  0 
 23 24  2  0  0  0  0 
 24 25  1  0  0  0  0 
 25 26  2  0  0  0  0 
 21 26  1  0  0  0  0 
 26 27  1  0  0  0  0 
  7 28  1  6  0  0  0 
 28 29  1  0  0  0  0 
 28 30  2  0  0  0  0 
M  END
> <SMILES>
[H][C@]12SC(C)(C)[C@@H](N1C(=O)[C@H]2NC(=O)C1=C(C)ON=C1C1=CC=CC=C1Cl)C(O)=O

$$$$

  CDK     01261921162D

 33 32  0  0  1  0  0  0  0  0999 V2000
    1.5000    4.5887    0.0000 O   0  0  0  0  0  0  0  0  0  0  0  0
    2.7990    3.8387    0.0000 C   0  0  0  0  0  0  0  0  0  0  0  0
    4.0981    4.5887    0.0000 C   0  0  0  0  0  0  0  0  0  0  0  0
    5.0623    5.7378    0.0000 N   0  0  0  0  0  0  0  0  0  0  0  0
    5.3971    3.8387    0.0000 C   0  0  0  0  0  0  0  0  0  0  0  0
    6.6962    4.5887    0.0000 O   0  0  0  0  0  0  0  0  0  0  0  0
    3.1339    5.7378    0.0000 C   0  0  0  0  0  0  0  0  0  0  0  0
    1.6567    5.4773    0.0000 O   0  0  0  0  0  0  0  0  0  0  0  0
    8.9462    2.2536    0.0000 C   0  0  0  0  0  0  0  0  0  0  0  0
   10.4385    2.1025    0.0000 C   0  0  0  0  0  0  0  0  0  0  0  0
   11.3156    3.3194    0.0000 C   0  0  0  0  0  0  0  0  0  0  0  0
   12.8080    3.1682    0.0000 C   0  0  0  0  0  0  0  0  0  0  0  0
   13.6850    4.3851    0.0000 C   0  0  0  0  0  0  0  0  0  0  0  0
   15.1774    4.2340    0.0000 C   0  0  2  0  0  0  0  0  0  0  0  0
   15.7927    2.8660    0.0000 O   0  0  0  0  0  0  0  0  0  0  0  0
   16.0545    5.4508    0.0000 C   0  0  0  0  0  0  0  0  0  0  0  0
   17.5468    5.2997    0.0000 C   0  0  0  0  0  0  0  0  0  0  0  0
   18.4239    6.5166    0.0000 C   0  0  1  0  0  0  0  0  0  0  0  0
   17.9539    7.9266    0.0000 C   0  0  2  0  0  0  0  0  0  0  0  0
   16.5230    8.3767    0.0000 O   0  0  0  0  0  0  0  0  0  0  0  0
   19.1639    8.8266    0.0000 C   0  0  0  0  0  0  0  0  0  0  0  0
   20.3939    7.9466    0.0000 C   0  0  2  0  0  0  0  0  0  0  0  0
   21.8196    8.4129    0.0000 O   0  0  0  0  0  0  0  0  0  0  0  0
   19.9239    6.5166    0.0000 C   0  0  2  0  0  0  0  0  0  0  0  0
   20.8035    5.3015    0.0000 C   0  0  0  0  0  0  0  0  0  0  0  0
   22.2955    5.4558    0.0000 C   0  0  0  0  0  0  0  0  0  0  0  0
   23.1752    4.2408    0.0000 C   0  0  0  0  0  0  0  0  0  0  0  0
   24.6672    4.3951    0.0000 C   0  0  0  0  0  0  0  0  0  0  0  0
   25.5468    3.1800    0.0000 C   0  0  0  0  0  0  0  0  0  0  0  0
   27.0389    3.3343    0.0000 C   0  0  0  0  0  0  0  0  0  0  0  0
   27.9185    2.1193    0.0000 C   0  0  0  0  0  0  0  0  0  0  0  0
   29.4105    2.2735    0.0000 O   0  0  0  0  0  0  0  0  0  0  0  0
   27.3061    0.7500    0.0000 O   0  0  0  0  0  0  0  0  0  0  0  0
  1  2  1  0  0  0  0 
  2  3  1  0  0  0  0 
  3  4  1  0  0  0  0 
  3  5  1  0  0  0  0 
  5  6  1  0  0  0  0 
  3  7  1  0  0  0  0 
  7  8  1  0  0  0  0 
  9 10  1  0  0  0  0 
 10 11  1  0  0  0  0 
 11 12  1  0  0  0  0 
 12 13  1  0  0  0  0 
 13 14  1  0  0  0  0 
 14 15  1  1  0  0  0 
 14 16  1  0  0  0  0 
 16 17  2  3  0  0  0 
 18 17  1  1  0  0  0 
 18 19  1  0  0  0  0 
 19 20  1  6  0  0  0 
 19 21  1  0  0  0  0 
 21 22  1  0  0  0  0 
 22 23  1  6  0  0  0 
 22 24  1  0  0  0  0 
 18 24  1  0  0  0  0 
 24 25  1  6  0  0  0 
 25 26  1  4  0  0  0 
 26 27  2  0  0  0  0 
 27 28  1  0  0  0  0 
 28 29  1  0  0  0  0 
 29 30  1  0  0  0  0 
 30 31  1  0  0  0  0 
 31 32  1  0  0  0  0 
 31 33  2  0  0  0  0 
M  END
> <SMILES>
OCC(N)(CO)CO.CCCCC[C@H](O)C=C[C@H]1[C@H](O)C[C@H](O)[C@@H]1CC=C/CCCC(O)=O

$$$$

  CDK     01261921162D

 26 29  0  0  0  0  0  0  0  0999 V2000
    1.3000   -3.7500    0.0000 C   0  0  0  0  0  0  0  0  0  0  0  0
    1.3000   -2.2500    0.0000 C   0  0  0  0  0  0  0  0  0  0  0  0
    2.6000   -1.5000    0.0000 C   0  0  0  0  0  0  0  0  0  0  0  0
    2.6000    0.0000    0.0000 O   0  0  0  0  0  0  0  0  0  0  0  0
    1.3000    0.7500    0.0000 C   0  0  0  0  0  0  0  0  0  0  0  0
   -0.0000    0.0000    0.0000 C   0  0  0  0  0  0  0  0  0  0  0  0
   -0.0000   -1.5000    0.0000 N   0  0  0  0  0  0  0  0  0  0  0  0
   -1.3000   -2.2500    0.0000 C   0  0  0  0  0  0  0  0  0  0  0  0
   -2.6000   -1.5000    0.0000 C   0  0  0  0  0  0  0  0  0  0  0  0
   -3.8989   -2.2502    0.0000 C   0  0  0  0  0  0  0  0  0  0  0  0
   -3.8987   -3.7502    0.0000 O   0  0  0  0  0  0  0  0  0  0  0  0
   -5.1981   -1.5004    0.0000 O   0  0  0  0  0  0  0  0  0  0  0  0
   -2.6000    0.0000    0.0000 C   0  0  0  0  0  0  0  0  0  0  0  0
   -3.8989    0.7502    0.0000 O   0  0  0  0  0  0  0  0  0  0  0  0
   -1.3000    0.7500    0.0000 C   0  0  0  0  0  0  0  0  0  0  0  0
   -1.3000    2.2500    0.0000 C   0  0  0  0  0  0  0  0  0  0  0  0
   -0.0000    3.0000    0.0000 C   0  0  0  0  0  0  0  0  0  0  0  0
    0.0000    4.5000    0.0000 F   0  0  0  0  0  0  0  0  0  0  0  0
    1.3000    2.2500    0.0000 C   0  0  0  0  0  0  0  0  0  0  0  0
    2.5989    3.0002    0.0000 N   0  0  0  0  0  0  0  0  0  0  0  0
    3.8989    2.2502    0.0000 C   0  0  0  0  0  0  0  0  0  0  0  0
    5.1989    3.0002    0.0000 C   0  0  0  0  0  0  0  0  0  0  0  0
    5.1989    4.5002    0.0000 N   0  0  0  0  0  0  0  0  0  0  0  0
    6.4978    5.2504    0.0000 C   0  0  0  0  0  0  0  0  0  0  0  0
    3.8989    5.2502    0.0000 C   0  0  0  0  0  0  0  0  0  0  0  0
    2.5989    4.5002    0.0000 C   0  0  0  0  0  0  0  0  0  0  0  0
  1  2  1  0  0  0  0 
  2  3  1  0  0  0  0 
  3  4  1  0  0  0  0 
  4  5  1  0  0  0  0 
  5  6  2  0  0  0  0 
  6  7  1  0  0  0  0 
  2  7  1  0  0  0  0 
  7  8  1  0  0  0  0 
  8  9  2  0  0  0  0 
  9 10  1  0  0  0  0 
 10 11  1  0  0  0  0 
 10 12  2  0  0  0  0 
  9 13  1  0  0  0  0 
 13 14  2  0  0  0  0 
 13 15  1  0  0  0  0 
  6 15  1  0  0  0  0 
 15 16  2  0  0  0  0 
 16 17  1  0  0  0  0 
 17 18  1  0  0  0  0 
 17 19  2  0  0  0  0 
  5 19  1  0  0  0  0 
 19 20  1  0  0  0  0 
 20 21  1  0  0  0  0 
 21 22  1  0  0  0  0 
 22 23  1  0  0  0  0 
 23 24  1  0  0  0  0 
 23 25  1  0  0  0  0 
 25 26  1  0  0  0  0 
 20 26  1  0  0  0  0 
M  END
> <SMILES>
CC1COC2=C3N1C=C(C(O)=O)C(=O)C3=CC(F)=C2N1CCN(C)CC1

$$$$

  CDK     01261921162D

 14 14  0  0  1  0  0  0  0  0999 V2000
    3.3754   -1.4500    0.0000 C   0  0  0  0  0  0  0  0  0  0  0  0
    2.0779   -0.6975    0.0000 C   0  0  2  0  0  0  0  0  0  0  0  0
    2.0808    0.8025    0.0000 C   0  0  0  0  0  0  0  0  0  0  0  0
    3.3813    1.5500    0.0000 S   0  0  0  0  0  0  0  0  0  0  0  0
    0.7774   -1.4449    0.0000 C   0  0  0  0  0  0  0  0  0  0  0  0
   -0.5202   -0.6924    0.0000 O   0  0  0  0  0  0  0  0  0  0  0  0
    0.7744   -2.9449    0.0000 N   0  0  0  0  0  0  0  0  0  0  0  0
    1.9844   -3.8249    0.0000 C   0  0  0  0  0  0  0  0  0  0  0  0
    1.5244   -5.2549    0.0000 C   0  0  0  0  0  0  0  0  0  0  0  0
    0.0244   -5.2549    0.0000 C   0  0  0  0  0  0  0  0  0  0  0  0
   -0.4456   -3.8249    0.0000 C   0  0  1  0  0  0  0  0  0  0  0  0
   -1.8721   -3.3614    0.0000 C   0  0  0  0  0  0  0  0  0  0  0  0
   -2.9869   -4.3650    0.0000 O   0  0  0  0  0  0  0  0  0  0  0  0
   -2.1840   -1.8941    0.0000 O   0  0  0  0  0  0  0  0  0  0  0  0
  2  1  1  1  0  0  0 
  2  3  1  0  0  0  0 
  3  4  1  0  0  0  0 
  2  5  1  0  0  0  0 
  5  6  2  0  0  0  0 
  5  7  1  0  0  0  0 
  7  8  1  0  0  0  0 
  8  9  1  0  0  0  0 
  9 10  1  0  0  0  0 
 10 11  1  0  0  0  0 
  7 11  1  0  0  0  0 
 11 12  1  1  0  0  0 
 12 13  1  0  0  0  0 
 12 14  2  0  0  0  0 
M  END
> <SMILES>
C[C@H](CS)C(=O)N1CCC[C@H]1C(O)=O

$$$$

  CDK     01261921162D

 37 40  0  0  1  0  0  0  0  0999 V2000
   -0.6904    2.6183    0.0000 H   0  0  0  0  0  0  0  0  0  0  0  0
   -0.3000    1.1700    0.0000 C   0  0  1  0  0  0  0  0  0  0  0  0
    0.9900    1.9200    0.0000 S   0  0  0  0  0  0  0  0  0  0  0  0
    2.3100    1.1700    0.0000 C   0  0  0  0  0  0  0  0  0  0  0  0
    2.3100   -0.3500    0.0000 C   0  0  0  0  0  0  0  0  0  0  0  0
    3.6086   -1.1008    0.0000 C   0  0  0  0  0  0  0  0  0  0  0  0
    4.9081   -0.3516    0.0000 S   0  0  0  0  0  0  0  0  0  0  0  0
    6.2067   -1.1023    0.0000 C   0  0  0  0  0  0  0  0  0  0  0  0
    7.5070   -0.3529    0.0000 N   0  0  0  0  0  0  0  0  0  0  0  0
    8.8067   -1.1035    0.0000 C   0  0  0  0  0  0  0  0  0  0  0  0
   10.1059   -0.3538    0.0000 O   0  0  0  0  0  0  0  0  0  0  0  0
    8.8060   -2.6035    0.0000 C   0  0  0  0  0  0  0  0  0  0  0  0
   10.1046   -3.3542    0.0000 O   0  0  0  0  0  0  0  0  0  0  0  0
    7.5057   -3.3529    0.0000 N   0  0  0  0  0  0  0  0  0  0  0  0
    6.2060   -2.6023    0.0000 N   0  0  0  0  0  0  0  0  0  0  0  0
    4.9068   -3.3520    0.0000 C   0  0  0  0  0  0  0  0  0  0  0  0
    0.9900   -1.1100    0.0000 C   0  0  0  0  0  0  0  0  0  0  0  0
   -0.3000   -0.3300    0.0000 N   0  0  0  0  0  0  0  0  0  0  0  0
   -1.8000   -0.3300    0.0000 C   0  0  0  0  0  0  0  0  0  0  0  0
   -2.8607   -1.3907    0.0000 O   0  0  0  0  0  0  0  0  0  0  0  0
   -1.8000    1.1700    0.0000 C   0  0  1  0  0  0  0  0  0  0  0  0
   -2.8607    2.2307    0.0000 N   0  0  0  0  0  0  0  0  0  0  0  0
   -4.3095    1.8424    0.0000 C   0  0  0  0  0  0  0  0  0  0  0  0
   -4.6978    0.3935    0.0000 O   0  0  0  0  0  0  0  0  0  0  0  0
   -5.3702    2.9031    0.0000 C   0  0  0  0  0  0  0  0  0  0  0  0
   -6.8191    2.5149    0.0000 N   0  0  0  0  0  0  0  0  0  0  0  0
   -7.8798    3.5755    0.0000 O   0  0  0  0  0  0  0  0  0  0  0  0
   -9.3286    3.1873    0.0000 C   0  0  0  0  0  0  0  0  0  0  0  0
   -4.9820    4.3520    0.0000 C   0  0  0  0  0  0  0  0  0  0  0  0
   -3.5887    4.8875    0.0000 C   0  0  0  0  0  0  0  0  0  0  0  0
   -3.6579    6.3880    0.0000 S   0  0  0  0  0  0  0  0  0  0  0  0
   -5.1108    6.7689    0.0000 C   0  0  0  0  0  0  0  0  0  0  0  0
   -5.6513    8.1681    0.0000 N   0  0  0  0  0  0  0  0  0  0  0  0
   -5.9254    5.5181    0.0000 N   0  0  0  0  0  0  0  0  0  0  0  0
    0.9739   -2.6099    0.0000 C   0  0  0  0  0  0  0  0  0  0  0  0
    2.2649   -3.3738    0.0000 O   0  0  0  0  0  0  0  0  0  0  0  0
   -0.3331   -3.3460    0.0000 O   0  0  0  0  0  0  0  0  0  0  0  0
  2  1  1  6  0  0  0 
  2  3  1  0  0  0  0 
  3  4  1  0  0  0  0 
  4  5  1  0  0  0  0 
  5  6  1  0  0  0  0 
  6  7  1  0  0  0  0 
  7  8  1  0  0  0  0 
  8  9  2  0  0  0  0 
  9 10  1  0  0  0  0 
 10 11  2  0  0  0  0 
 10 12  1  0  0  0  0 
 12 13  2  0  0  0  0 
 12 14  1  0  0  0  0 
 14 15  1  0  0  0  0 
  8 15  1  0  0  0  0 
 15 16  1  0  0  0  0 
  5 17  2  0  0  0  0 
 17 18  1  0  0  0  0 
  2 18  1  0  0  0  0 
 18 19  1  0  0  0  0 
 19 20  2  0  0  0  0 
 19 21  1  0  0  0  0 
  2 21  1  0  0  0  0 
 21 22  1  1  0  0  0 
 22 23  1  0  0  0  0 
 23 24  2  0  0  0  0 
 23 25  1  0  0  0  0 
 25 26  2  0  0  0  0 
 26 27  1  4  0  0  0 
 27 28  1  0  0  0  0 
 25 29  1  0  0  0  0 
 29 30  2  0  0  0  0 
 30 31  1  0  0  0  0 
 31 32  1  0  0  0  0 
 32 33  1  0  0  0  0 
 32 34  2  0  0  0  0 
 29 34  1  0  0  0  0 
 17 35  1  0  0  0  0 
 35 36  1  0  0  0  0 
 35 37  2  0  0  0  0 
M  END
> <SMILES>
[H][C@]12SCC(CSC3=NC(=O)C(=O)NN3C)=C(N1C(=O)[C@H]2NC(=O)C(=N/OC)C1=CSC(N)=N1)C(O)=O

$$$$

  CDK     01261921162D

 20 21  0  0  0  0  0  0  0  0999 V2000
   -5.8455    1.4447    0.0000 C   0  0  0  0  0  0  0  0  0  0  0  0
   -4.5465    2.1947    0.0000 N   0  0  0  0  0  0  0  0  0  0  0  0
   -4.5465    3.6947    0.0000 C   0  0  0  0  0  0  0  0  0  0  0  0
   -3.2474    1.4447    0.0000 C   0  0  0  0  0  0  0  0  0  0  0  0
   -1.9484    2.1947    0.0000 C   0  0  0  0  0  0  0  0  0  0  0  0
   -0.6493    1.4447    0.0000 O   0  0  0  0  0  0  0  0  0  0  0  0
    0.6497    2.1947    0.0000 C   0  0  0  0  0  0  0  0  0  0  0  0
    1.9487    1.4447    0.0000 C   0  0  0  0  0  0  0  0  0  0  0  0
    3.2483    2.1955    0.0000 C   0  0  0  0  0  0  0  0  0  0  0  0
    4.5473    1.4455    0.0000 C   0  0  0  0  0  0  0  0  0  0  0  0
    4.5468   -0.0553    0.0000 C   0  0  0  0  0  0  0  0  0  0  0  0
    3.2473   -0.8061    0.0000 C   0  0  0  0  0  0  0  0  0  0  0  0
    1.9483   -0.0561    0.0000 C   0  0  0  0  0  0  0  0  0  0  0  0
    0.6497    3.6947    0.0000 C   0  0  0  0  0  0  0  0  0  0  0  0
   -0.6499    4.4453    0.0000 C   0  0  0  0  0  0  0  0  0  0  0  0
   -0.6507    5.9461    0.0000 C   0  0  0  0  0  0  0  0  0  0  0  0
    0.6483    6.6964    0.0000 C   0  0  0  0  0  0  0  0  0  0  0  0
    0.6483    8.1964    0.0000 Br  0  0  0  0  0  0  0  0  0  0  0  0
    1.9479    5.9457    0.0000 C   0  0  0  0  0  0  0  0  0  0  0  0
    1.9486    4.4449    0.0000 C   0  0  0  0  0  0  0  0  0  0  0  0
  1  2  1  0  0  0  0 
  2  3  1  0  0  0  0 
  2  4  1  0  0  0  0 
  4  5  1  0  0  0  0 
  5  6  1  0  0  0  0 
  6  7  1  0  0  0  0 
  7  8  1  0  0  0  0 
  8  9  2  0  0  0  0 
  9 10  1  0  0  0  0 
 10 11  2  0  0  0  0 
 11 12  1  0  0  0  0 
 12 13  2  0  0  0  0 
  8 13  1  0  0  0  0 
  7 14  1  0  0  0  0 
 14 15  2  0  0  0  0 
 15 16  1  0  0  0  0 
 16 17  2  0  0  0  0 
 17 18  1  0  0  0  0 
 17 19  1  0  0  0  0 
 19 20  2  0  0  0  0 
 14 20  1  0  0  0  0 
M  END
> <SMILES>
CN(C)CCOC(C1=CC=CC=C1)C1=CC=C(Br)C=C1

$$$$

  CDK     01261921162D

 26 28  0  0  1  0  0  0  0  0999 V2000
   -0.9880    2.1990    0.0000 H   0  0  0  0  0  0  0  0  0  0  0  0
   -0.6000    0.7500    0.0000 C   0  0  1  0  0  0  0  0  0  0  0  0
    0.7000    1.5000    0.0000 S   0  0  0  0  0  0  0  0  0  0  0  0
    2.0000    0.7500    0.0000 C   0  0  0  0  0  0  0  0  0  0  0  0
    2.0000   -0.7500    0.0000 C   0  0  0  0  0  0  0  0  0  0  0  0
    0.7000   -1.5000    0.0000 C   0  0  0  0  0  0  0  0  0  0  0  0
   -0.6000   -0.7500    0.0000 N   0  0  0  0  0  0  0  0  0  0  0  0
   -2.1000   -0.7500    0.0000 C   0  0  0  0  0  0  0  0  0  0  0  0
   -3.1607   -1.8107    0.0000 O   0  0  0  0  0  0  0  0  0  0  0  0
   -2.1000    0.7500    0.0000 C   0  0  1  0  0  0  0  0  0  0  0  0
   -3.1607    1.8107    0.0000 N   0  0  0  0  0  0  0  0  0  0  0  0
   -4.6095    1.4224    0.0000 C   0  0  0  0  0  0  0  0  0  0  0  0
   -4.9978   -0.0265    0.0000 O   0  0  0  0  0  0  0  0  0  0  0  0
   -5.6702    2.4831    0.0000 C   0  0  0  0  0  0  0  0  0  0  0  0
   -7.1191    2.0949    0.0000 N   0  0  0  0  0  0  0  0  0  0  0  0
   -8.1798    3.1555    0.0000 O   0  0  0  0  0  0  0  0  0  0  0  0
   -9.6286    2.7673    0.0000 C   0  0  0  0  0  0  0  0  0  0  0  0
   -5.2820    3.9320    0.0000 C   0  0  0  0  0  0  0  0  0  0  0  0
   -3.8887    4.4675    0.0000 C   0  0  0  0  0  0  0  0  0  0  0  0
   -3.9579    5.9680    0.0000 S   0  0  0  0  0  0  0  0  0  0  0  0
   -5.4108    6.3489    0.0000 C   0  0  0  0  0  0  0  0  0  0  0  0
   -5.9513    7.7481    0.0000 N   0  0  0  0  0  0  0  0  0  0  0  0
   -6.2254    5.0981    0.0000 N   0  0  0  0  0  0  0  0  0  0  0  0
    0.7000   -3.0000    0.0000 C   0  0  0  0  0  0  0  0  0  0  0  0
    1.9990   -3.7500    0.0000 O   0  0  0  0  0  0  0  0  0  0  0  0
   -0.5990   -3.7500    0.0000 O   0  0  0  0  0  0  0  0  0  0  0  0
  2  1  1  6  0  0  0 
  2  3  1  0  0  0  0 
  3  4  1  0  0  0  0 
  4  5  1  0  0  0  0 
  5  6  2  0  0  0  0 
  6  7  1  0  0  0  0 
  2  7  1  0  0  0  0 
  7  8  1  0  0  0  0 
  8  9  2  0  0  0  0 
  8 10  1  0  0  0  0 
  2 10  1  0  0  0  0 
 10 11  1  1  0  0  0 
 11 12  1  0  0  0  0 
 12 13  2  0  0  0  0 
 12 14  1  0  0  0  0 
 14 15  2  0  0  0  0 
 15 16  1  4  0  0  0 
 16 17  1  0  0  0  0 
 14 18  1  0  0  0  0 
 18 19  2  0  0  0  0 
 19 20  1  0  0  0  0 
 20 21  1  0  0  0  0 
 21 22  1  0  0  0  0 
 21 23  2  0  0  0  0 
 18 23  1  0  0  0  0 
  6 24  1  0  0  0  0 
 24 25  1  0  0  0  0 
 24 26  2  0  0  0  0 
M  END
> <SMILES>
[H][C@]12SCC=C(N1C(=O)[C@H]2NC(=O)C(=N/OC)C1=CSC(N)=N1)C(O)=O

$$$$

  CDK     01261921162D

 24 25  0  0  1  0  0  0  0  0999 V2000
   -0.6904    2.6183    0.0000 H   0  0  0  0  0  0  0  0  0  0  0  0
   -0.3000    1.1700    0.0000 C   0  0  1  0  0  0  0  0  0  0  0  0
    0.9900    1.9200    0.0000 S   0  0  0  0  0  0  0  0  0  0  0  0
    2.3100    1.1700    0.0000 C   0  0  0  0  0  0  0  0  0  0  0  0
    2.3100   -0.3500    0.0000 C   0  0  0  0  0  0  0  0  0  0  0  0
    3.6086   -1.1008    0.0000 C   0  0  0  0  0  0  0  0  0  0  0  0
    4.9081   -0.3516    0.0000 O   0  0  0  0  0  0  0  0  0  0  0  0
    6.2067   -1.1023    0.0000 C   0  0  0  0  0  0  0  0  0  0  0  0
    7.5062   -0.3531    0.0000 C   0  0  0  0  0  0  0  0  0  0  0  0
    6.2058   -2.6023    0.0000 O   0  0  0  0  0  0  0  0  0  0  0  0
    0.9900   -1.1100    0.0000 C   0  0  0  0  0  0  0  0  0  0  0  0
   -0.3000   -0.3300    0.0000 N   0  0  0  0  0  0  0  0  0  0  0  0
   -1.8000   -0.3300    0.0000 C   0  0  0  0  0  0  0  0  0  0  0  0
   -2.8607   -1.3907    0.0000 O   0  0  0  0  0  0  0  0  0  0  0  0
   -1.8000    1.1700    0.0000 C   0  0  1  0  0  0  0  0  0  0  0  0
   -2.8607    2.2307    0.0000 N   0  0  0  0  0  0  0  0  0  0  0  0
   -4.3095    1.8424    0.0000 C   0  0  0  0  0  0  0  0  0  0  0  0
   -4.6978    0.3935    0.0000 O   0  0  0  0  0  0  0  0  0  0  0  0
   -5.3702    2.9031    0.0000 C   0  0  0  0  0  0  0  0  0  0  0  0
   -6.8191    2.5149    0.0000 C   0  0  0  0  0  0  0  0  0  0  0  0
   -8.2680    2.1266    0.0000 N   0  0  0  0  0  0  0  0  0  0  0  0
    0.9739   -2.6099    0.0000 C   0  0  0  0  0  0  0  0  0  0  0  0
    2.2649   -3.3738    0.0000 O   0  0  0  0  0  0  0  0  0  0  0  0
   -0.3331   -3.3460    0.0000 O   0  0  0  0  0  0  0  0  0  0  0  0
  2  1  1  6  0  0  0 
  2  3  1  0  0  0  0 
  3  4  1  0  0  0  0 
  4  5  1  0  0  0  0 
  5  6  1  0  0  0  0 
  6  7  1  0  0  0  0 
  7  8  1  0  0  0  0 
  8  9  1  0  0  0  0 
  8 10  2  0  0  0  0 
  5 11  2  0  0  0  0 
 11 12  1  0  0  0  0 
  2 12  1  0  0  0  0 
 12 13  1  0  0  0  0 
 13 14  2  0  0  0  0 
 13 15  1  0  0  0  0 
  2 15  1  0  0  0  0 
 15 16  1  1  0  0  0 
 16 17  1  0  0  0  0 
 17 18  2  0  0  0  0 
 17 19  1  0  0  0  0 
 19 20  1  0  0  0  0 
 20 21  3  0  0  0  0 
 11 22  1  0  0  0  0 
 22 23  1  0  0  0  0 
 22 24  2  0  0  0  0 
M  END
> <SMILES>
[H][C@]12SCC(COC(C)=O)=C(N1C(=O)[C@H]2NC(=O)CC#N)C(O)=O

$$$$

  CDK     01261921162D

 28 30  0  0  1  0  0  0  0  0999 V2000
   -0.9880    2.1990    0.0000 H   0  0  0  0  0  0  0  0  0  0  0  0
   -0.6000    0.7500    0.0000 C   0  0  1  0  0  0  0  0  0  0  0  0
    0.7000    1.5000    0.0000 S   0  0  0  0  0  0  0  0  0  0  0  0
    2.0000    0.7500    0.0000 C   0  0  0  0  0  0  0  0  0  0  0  0
    2.0000   -0.7500    0.0000 C   0  0  0  0  0  0  0  0  0  0  0  0
    0.7000   -1.5000    0.0000 C   0  0  0  0  0  0  0  0  0  0  0  0
   -0.6000   -0.7500    0.0000 N   0  0  0  0  0  0  0  0  0  0  0  0
   -2.1000   -0.7500    0.0000 C   0  0  0  0  0  0  0  0  0  0  0  0
   -3.1607   -1.8107    0.0000 O   0  0  0  0  0  0  0  0  0  0  0  0
   -2.1000    0.7500    0.0000 C   0  0  1  0  0  0  0  0  0  0  0  0
   -3.1607    1.8107    0.0000 N   0  0  0  0  0  0  0  0  0  0  0  0
   -4.6095    1.4224    0.0000 C   0  0  0  0  0  0  0  0  0  0  0  0
   -4.9978   -0.0265    0.0000 O   0  0  0  0  0  0  0  0  0  0  0  0
   -5.6702    2.4831    0.0000 C   0  0  0  0  0  0  0  0  0  0  0  0
   -7.1191    2.0949    0.0000 C   0  0  0  0  0  0  0  0  0  0  0  0
   -8.1798    3.1555    0.0000 C   0  0  0  0  0  0  0  0  0  0  0  0
   -9.6286    2.7673    0.0000 C   0  0  0  0  0  0  0  0  0  0  0  0
  -10.6893    3.8280    0.0000 O   0  0  0  0  0  0  0  0  0  0  0  0
  -10.0169    1.3184    0.0000 O   0  0  0  0  0  0  0  0  0  0  0  0
   -5.2820    3.9320    0.0000 C   0  0  0  0  0  0  0  0  0  0  0  0
   -3.8887    4.4675    0.0000 C   0  0  0  0  0  0  0  0  0  0  0  0
   -3.9579    5.9680    0.0000 S   0  0  0  0  0  0  0  0  0  0  0  0
   -5.4108    6.3489    0.0000 C   0  0  0  0  0  0  0  0  0  0  0  0
   -5.9513    7.7481    0.0000 N   0  0  0  0  0  0  0  0  0  0  0  0
   -6.2254    5.0981    0.0000 N   0  0  0  0  0  0  0  0  0  0  0  0
    0.7000   -3.0000    0.0000 C   0  0  0  0  0  0  0  0  0  0  0  0
    1.9990   -3.7500    0.0000 O   0  0  0  0  0  0  0  0  0  0  0  0
   -0.5990   -3.7500    0.0000 O   0  0  0  0  0  0  0  0  0  0  0  0
  2  1  1  6  0  0  0 
  2  3  1  0  0  0  0 
  3  4  1  0  0  0  0 
  4  5  1  0  0  0  0 
  5  6  2  0  0  0  0 
  6  7  1  0  0  0  0 
  2  7  1  0  0  0  0 
  7  8  1  0  0  0  0 
  8  9  2  0  0  0  0 
  8 10  1  0  0  0  0 
  2 10  1  0  0  0  0 
 10 11  1  1  0  0  0 
 11 12  1  0  0  0  0 
 12 13  2  0  0  0  0 
 12 14  1  0  0  0  0 
 14 15  2  0  0  0  0 
 15 16  1  4  0  0  0 
 16 17  1  0  0  0  0 
 17 18  1  0  0  0  0 
 17 19  2  0  0  0  0 
 14 20  1  0  0  0  0 
 20 21  2  0  0  0  0 
 21 22  1  0  0  0  0 
 22 23  1  0  0  0  0 
 23 24  1  0  0  0  0 
 23 25  2  0  0  0  0 
 20 25  1  0  0  0  0 
  6 26  1  0  0  0  0 
 26 27  1  0  0  0  0 
 26 28  2  0  0  0  0 
M  END
> <SMILES>
[H][C@]12SCC=C(N1C(=O)[C@H]2NC(=O)C(=C/CC(O)=O)C1=CSC(N)=N1)C(O)=O

$$$$

  CDK     01261921162D

 17 18  0  0  0  0  0  0  0  0999 V2000
    5.7504   -1.1259    0.0000 C   0  0  0  0  0  0  0  0  0  0  0  0
    4.5372   -0.2437    0.0000 N   0  0  0  0  0  0  0  0  0  0  0  0
    4.6947    1.2480    0.0000 C   0  0  0  0  0  0  0  0  0  0  0  0
    3.1667   -0.8532    0.0000 C   0  0  0  0  0  0  0  0  0  0  0  0
    2.8550   -2.3129    0.0000 C   0  0  0  0  0  0  0  0  0  0  0  0
    3.8615   -3.4252    0.0000 C   0  0  0  0  0  0  0  0  0  0  0  0
    1.3621   -2.4787    0.0000 N   0  0  0  0  0  0  0  0  0  0  0  0
    0.6121   -3.7777    0.0000 C   0  0  0  0  0  0  0  0  0  0  0  0
    0.7592   -1.1029    0.0000 N   0  0  0  0  0  0  0  0  0  0  0  0
    1.8676   -0.1032    0.0000 C   0  0  0  0  0  0  0  0  0  0  0  0
    1.7102    1.3885    0.0000 O   0  0  0  0  0  0  0  0  0  0  0  0
   -0.7072   -0.7874    0.0000 C   0  0  0  0  0  0  0  0  0  0  0  0
   -1.1670    0.6413    0.0000 C   0  0  0  0  0  0  0  0  0  0  0  0
   -2.6334    0.9568    0.0000 C   0  0  0  0  0  0  0  0  0  0  0  0
   -3.6401   -0.1564    0.0000 C   0  0  0  0  0  0  0  0  0  0  0  0
   -3.1803   -1.5851    0.0000 C   0  0  0  0  0  0  0  0  0  0  0  0
   -1.7139   -1.9006    0.0000 C   0  0  0  0  0  0  0  0  0  0  0  0
  1  2  1  0  0  0  0 
  2  3  1  0  0  0  0 
  2  4  1  0  0  0  0 
  4  5  2  0  0  0  0 
  5  6  1  0  0  0  0 
  5  7  1  0  0  0  0 
  7  8  1  0  0  0  0 
  7  9  1  0  0  0  0 
  9 10  1  0  0  0  0 
  4 10  1  0  0  0  0 
 10 11  2  0  0  0  0 
  9 12  1  0  0  0  0 
 12 13  2  0  0  0  0 
 13 14  1  0  0  0  0 
 14 15  2  0  0  0  0 
 15 16  1  0  0  0  0 
 16 17  2  0  0  0  0 
 12 17  1  0  0  0  0 
M  END
> <SMILES>
CN(C)C1=C(C)N(C)N(C1=O)C1=CC=CC=C1

$$$$

  CDK     01261921162D

 14 15  0  0  0  0  0  0  0  0999 V2000
    0.0000    2.7800    0.0000 C   0  0  0  0  0  0  0  0  0  0  0  0
    0.0000    1.2800    0.0000 N   0  0  0  0  0  0  0  0  0  0  0  0
    1.2100    0.3900    0.0000 N   0  0  0  0  0  0  0  0  0  0  0  0
    0.7500   -1.0300    0.0000 C   0  0  0  0  0  0  0  0  0  0  0  0
    1.6322   -2.2431    0.0000 O   0  0  0  0  0  0  0  0  0  0  0  0
   -0.7500   -1.0300    0.0000 C   0  0  0  0  0  0  0  0  0  0  0  0
   -1.2100    0.3900    0.0000 C   0  0  0  0  0  0  0  0  0  0  0  0
   -2.6377    0.8500    0.0000 C   0  0  0  0  0  0  0  0  0  0  0  0
    2.6377    0.8500    0.0000 C   0  0  0  0  0  0  0  0  0  0  0  0
    3.7502   -0.1574    0.0000 C   0  0  0  0  0  0  0  0  0  0  0  0
    5.1780    0.3026    0.0000 C   0  0  0  0  0  0  0  0  0  0  0  0
    5.4932    1.7699    0.0000 C   0  0  0  0  0  0  0  0  0  0  0  0
    4.3807    2.7773    0.0000 C   0  0  0  0  0  0  0  0  0  0  0  0
    2.9530    2.3173    0.0000 C   0  0  0  0  0  0  0  0  0  0  0  0
  1  2  1  0  0  0  0 
  2  3  1  0  0  0  0 
  3  4  1  0  0  0  0 
  4  5  2  0  0  0  0 
  4  6  1  0  0  0  0 
  6  7  2  0  0  0  0 
  2  7  1  0  0  0  0 
  7  8  1  0  0  0  0 
  3  9  1  0  0  0  0 
  9 10  2  0  0  0  0 
 10 11  1  0  0  0  0 
 11 12  2  0  0  0  0 
 12 13  1  0  0  0  0 
 13 14  2  0  0  0  0 
  9 14  1  0  0  0  0 
M  END
> <SMILES>
CN1N(C(=O)C=C1C)C1=CC=CC=C1

$$$$

  CDK     01261921162D

 19 21  0  0  0  0  0  0  0  0999 V2000
    3.0589   -6.1698    0.0000 N   0  0  0  0  0  0  0  0  0  0  0  0
    2.9105   -4.6771    0.0000 C   0  0  0  0  0  0  0  0  0  0  0  0
    2.7622   -3.1845    0.0000 C   0  0  0  0  0  0  0  0  0  0  0  0
    3.9780   -2.3060    0.0000 N   0  0  0  0  0  0  0  0  0  0  0  0
    3.8327   -0.8071    0.0000 C   0  0  0  0  0  0  0  0  0  0  0  0
    2.4553   -0.1985    0.0000 C   0  0  0  0  0  0  0  0  0  0  0  0
    1.2395   -1.0770    0.0000 C   0  0  0  0  0  0  0  0  0  0  0  0
    1.4010   -2.5642    0.0000 C   0  0  0  0  0  0  0  0  0  0  0  0
   -0.1311   -0.4675    0.0000 C   0  0  0  0  0  0  0  0  0  0  0  0
   -0.4428    0.9922    0.0000 N   0  0  0  0  0  0  0  0  0  0  0  0
   -1.9356    1.1580    0.0000 N   0  0  0  0  0  0  0  0  0  0  0  0
   -2.5385   -0.2178    0.0000 C   0  0  0  0  0  0  0  0  0  0  0  0
   -1.4302   -1.2175    0.0000 N   0  0  0  0  0  0  0  0  0  0  0  0
   -4.0050   -0.5333    0.0000 C   0  0  0  0  0  0  0  0  0  0  0  0
   -4.4648   -1.9620    0.0000 C   0  0  0  0  0  0  0  0  0  0  0  0
   -5.9312   -2.2775    0.0000 C   0  0  0  0  0  0  0  0  0  0  0  0
   -6.9379   -1.1643    0.0000 N   0  0  0  0  0  0  0  0  0  0  0  0
   -6.4781    0.2643    0.0000 C   0  0  0  0  0  0  0  0  0  0  0  0
   -5.0117    0.5799    0.0000 C   0  0  0  0  0  0  0  0  0  0  0  0
  1  2  3  0  0  0  0 
  2  3  1  0  0  0  0 
  3  4  2  0  0  0  0 
  4  5  1  0  0  0  0 
  5  6  2  0  0  0  0 
  6  7  1  0  0  0  0 
  7  8  2  0  0  0  0 
  3  8  1  0  0  0  0 
  7  9  1  0  0  0  0 
  9 10  2  0  0  0  0 
 10 11  1  0  0  0  0 
 11 12  1  0  0  0  0 
 12 13  2  0  0  0  0 
  9 13  1  0  0  0  0 
 12 14  1  0  0  0  0 
 14 15  2  0  0  0  0 
 15 16  1  0  0  0  0 
 16 17  2  0  0  0  0 
 17 18  1  0  0  0  0 
 18 19  2  0  0  0  0 
 14 19  1  0  0  0  0 
M  END
> <SMILES>
N#CC1=NC=CC(=C1)C1=NNC(=N1)C1=CC=NC=C1

$$$$

  CDK     01261921162D

 20 21  0  0  0  0  0  0  0  0999 V2000
   -0.9802   -1.6866    0.0000 O   0  0  0  0  0  0  0  0  0  0  0  0
   -0.9627   -0.1867    0.0000 C   0  0  0  0  0  0  0  0  0  0  0  0
    0.3450    0.5481    0.0000 O   0  0  0  0  0  0  0  0  0  0  0  0
   -2.2529    0.5784    0.0000 C   0  0  0  0  0  0  0  0  0  0  0  0
   -3.5446   -0.1442    0.0000 C   0  0  0  0  0  0  0  0  0  0  0  0
   -4.8218    0.6079    0.0000 C   0  0  0  0  0  0  0  0  0  0  0  0
   -4.8072    2.0828    0.0000 C   0  0  0  0  0  0  0  0  0  0  0  0
   -3.5132    2.8414    0.0000 C   0  0  0  0  0  0  0  0  0  0  0  0
   -2.2383    2.0533    0.0000 C   0  0  0  0  0  0  0  0  0  0  0  0
   -0.9246    2.7772    0.0000 N   0  0  0  0  0  0  0  0  0  0  0  0
   -0.8946    4.2769    0.0000 C   0  0  0  0  0  0  0  0  0  0  0  0
    0.4190    5.0010    0.0000 C   0  0  0  0  0  0  0  0  0  0  0  0
    0.4483    6.5015    0.0000 C   0  0  0  0  0  0  0  0  0  0  0  0
   -0.8313    7.2692    0.0000 C   0  0  0  0  0  0  0  0  0  0  0  0
   -2.1449    6.5451    0.0000 C   0  0  0  0  0  0  0  0  0  0  0  0
   -2.1790    5.0533    0.0000 C   0  0  0  0  0  0  0  0  0  0  0  0
    1.7607    7.2279    0.0000 C   0  0  0  0  0  0  0  0  0  0  0  0
    1.7879    8.7276    0.0000 F   0  0  0  0  0  0  0  0  0  0  0  0
    2.2481    5.8092    0.0000 F   0  0  0  0  0  0  0  0  0  0  0  0
    3.2424    7.4615    0.0000 F   0  0  0  0  0  0  0  0  0  0  0  0
  1  2  1  0  0  0  0 
  2  3  2  0  0  0  0 
  2  4  1  0  0  0  0 
  4  5  2  0  0  0  0 
  5  6  1  0  0  0  0 
  6  7  2  0  0  0  0 
  7  8  1  0  0  0  0 
  8  9  2  0  0  0  0 
  4  9  1  0  0  0  0 
  9 10  1  0  0  0  0 
 10 11  1  0  0  0  0 
 11 12  2  0  0  0  0 
 12 13  1  0  0  0  0 
 13 14  2  0  0  0  0 
 14 15  1  0  0  0  0 
 15 16  2  0  0  0  0 
 11 16  1  0  0  0  0 
 13 17  1  0  0  0  0 
 17 18  1  0  0  0  0 
 17 19  1  0  0  0  0 
 17 20  1  0  0  0  0 
M  END
> <SMILES>
OC(=O)C1=CC=CC=C1NC1=CC(=CC=C1)C(F)(F)F

$$$$

  CDK     01261921162D

 23 26  0  0  1  0  0  0  0  0999 V2000
   -3.4155   -1.2529    0.0000 N   0  0  0  0  0  0  0  0  0  0  0  0
   -2.0800   -0.5700    0.0000 C   0  0  0  0  0  0  0  0  0  0  0  0
   -0.8900   -1.3700    0.0000 N   0  0  0  0  0  0  0  0  0  0  0  0
    0.5900   -0.6700    0.0000 C   0  0  0  0  0  0  0  0  0  0  0  0
    0.5600    0.8300    0.0000 C   0  0  0  0  0  0  0  0  0  0  0  0
    2.0100    1.2500    0.0000 N   0  0  0  0  0  0  0  0  0  0  0  0
    2.8500    0.0000    0.0000 C   0  0  0  0  0  0  0  0  0  0  0  0
    1.9200   -1.1800    0.0000 N   0  0  0  0  0  0  0  0  0  0  0  0
    2.3180   -2.6262    0.0000 C   0  0  2  0  0  0  0  0  0  0  0  0
    1.3824   -3.7937    0.0000 O   0  0  0  0  0  0  0  0  0  0  0  0
    2.2044   -5.0536    0.0000 C   0  0  2  0  0  0  0  0  0  0  0  0
    1.7749   -6.3148    0.0000 C   0  0  0  0  0  0  0  0  0  0  0  0
    2.5472   -7.3521    0.0000 O   0  0  0  0  0  0  0  0  0  0  0  0
    4.1011   -7.3048    0.0000 P   0  0  0  0  0  0  0  0  0  0  0  0
    3.9782   -8.7997    0.0000 O   0  0  0  0  0  0  0  0  0  0  0  0
    5.5728   -7.5947    0.0000 O   0  0  0  0  0  0  0  0  0  0  0  0
    4.5827   -5.7856    0.0000 O   0  0  0  0  0  0  0  0  0  0  0  0
    3.6543   -4.6610    0.0000 C   0  0  1  0  0  0  0  0  0  0  0  0
    3.7250   -3.1526    0.0000 C   0  0  1  0  0  0  0  0  0  0  0  0
    4.9772   -2.3269    0.0000 O   0  0  0  0  0  0  0  0  0  0  0  0
   -0.7100    1.6300    0.0000 C   0  0  0  0  0  0  0  0  0  0  0  0
   -0.6585    3.1291    0.0000 O   0  0  0  0  0  0  0  0  0  0  0  0
   -2.0300    0.9200    0.0000 N   0  0  0  0  0  0  0  0  0  0  0  0
  1  2  1  0  0  0  0 
  2  3  2  0  0  0  0 
  3  4  1  0  0  0  0 
  4  5  2  0  0  0  0 
  5  6  1  0  0  0  0 
  6  7  2  0  0  0  0 
  7  8  1  0  0  0  0 
  4  8  1  0  0  0  0 
  9  8  1  1  0  0  0 
  9 10  1  0  0  0  0 
 11 10  1  1  0  0  0 
 11 12  1  0  0  0  0 
 12 13  1  0  0  0  0 
 13 14  1  0  0  0  0 
 14 15  1  0  0  0  0 
 14 16  2  0  0  0  0 
 14 17  1  0  0  0  0 
 18 17  1  6  0  0  0 
 11 18  1  0  0  0  0 
 18 19  1  0  0  0  0 
  9 19  1  0  0  0  0 
 19 20  1  6  0  0  0 
  5 21  1  0  0  0  0 
 21 22  2  0  0  0  0 
 21 23  1  0  0  0  0 
  2 23  1  0  0  0  0 
M  END
> <SMILES>
NC1=NC2=C(N=CN2[C@@H]2O[C@@H]3COP(O)(=O)O[C@H]3[C@H]2O)C(=O)N1

$$$$

  CDK     01261921162D

 22 25  0  0  1  0  0  0  0  0999 V2000
   -1.2158   -2.9090    0.0000 N   0  0  0  0  0  0  0  0  0  0  0  0
   -1.1600   -1.4100    0.0000 C   0  0  0  0  0  0  0  0  0  0  0  0
   -2.4000   -0.6700    0.0000 N   0  0  0  0  0  0  0  0  0  0  0  0
   -2.3600    0.8500    0.0000 C   0  0  0  0  0  0  0  0  0  0  0  0
   -1.1000    1.5500    0.0000 N   0  0  0  0  0  0  0  0  0  0  0  0
    0.1800    0.7900    0.0000 C   0  0  0  0  0  0  0  0  0  0  0  0
    0.1800   -0.7400    0.0000 C   0  0  0  0  0  0  0  0  0  0  0  0
    1.6000   -1.2200    0.0000 N   0  0  0  0  0  0  0  0  0  0  0  0
    2.5100   -0.0300    0.0000 C   0  0  0  0  0  0  0  0  0  0  0  0
    1.6600    1.1900    0.0000 N   0  0  0  0  0  0  0  0  0  0  0  0
    2.1732    2.5995    0.0000 C   0  0  2  0  0  0  0  0  0  0  0  0
    3.6121    3.0093    0.0000 O   0  0  0  0  0  0  0  0  0  0  0  0
    3.6717    4.5124    0.0000 C   0  0  2  0  0  0  0  0  0  0  0  0
    4.7524    5.2918    0.0000 C   0  0  0  0  0  0  0  0  0  0  0  0
    4.7236    6.5847    0.0000 O   0  0  0  0  0  0  0  0  0  0  0  0
    3.4294    7.4461    0.0000 P   0  0  0  0  0  0  0  0  0  0  0  0
    4.3955    8.5936    0.0000 O   0  0  0  0  0  0  0  0  0  0  0  0
    2.3976    8.5349    0.0000 O   0  0  0  0  0  0  0  0  0  0  0  0
    2.1569    6.4867    0.0000 O   0  0  0  0  0  0  0  0  0  0  0  0
    2.2624    5.0322    0.0000 C   0  0  1  0  0  0  0  0  0  0  0  0
    1.3311    3.8435    0.0000 C   0  0  1  0  0  0  0  0  0  0  0  0
   -0.1680    3.8956    0.0000 O   0  0  0  0  0  0  0  0  0  0  0  0
  1  2  1  0  0  0  0 
  2  3  2  0  0  0  0 
  3  4  1  0  0  0  0 
  4  5  2  0  0  0  0 
  5  6  1  0  0  0  0 
  6  7  2  0  0  0  0 
  2  7  1  0  0  0  0 
  7  8  1  0  0  0  0 
  8  9  2  0  0  0  0 
  9 10  1  0  0  0  0 
  6 10  1  0  0  0  0 
 11 10  1  1  0  0  0 
 11 12  1  0  0  0  0 
 13 12  1  1  0  0  0 
 13 14  1  0  0  0  0 
 14 15  1  0  0  0  0 
 15 16  1  0  0  0  0 
 16 17  1  0  0  0  0 
 16 18  2  0  0  0  0 
 16 19  1  0  0  0  0 
 20 19  1  6  0  0  0 
 13 20  1  0  0  0  0 
 20 21  1  0  0  0  0 
 11 21  1  0  0  0  0 
 21 22  1  6  0  0  0 
M  END
> <SMILES>
NC1=NC=NC2=C1N=CN2[C@@H]1O[C@@H]2COP(O)(=O)O[C@H]2[C@H]1O

$$$$

  CDK     01261921162D

 24 26  0  0  0  0  0  0  0  0999 V2000
    6.9230    5.6225    0.0000 C   0  0  0  0  0  0  0  0  0  0  0  0
    5.4313    5.7800    0.0000 C   0  0  0  0  0  0  0  0  0  0  0  0
    4.5490    4.5669    0.0000 C   0  0  0  0  0  0  0  0  0  0  0  0
    3.0573    4.7243    0.0000 C   0  0  0  0  0  0  0  0  0  0  0  0
    2.1751    3.5112    0.0000 C   0  0  0  0  0  0  0  0  0  0  0  0
    2.6351    2.0912    0.0000 C   0  0  0  0  0  0  0  0  0  0  0  0
    4.0628    1.6312    0.0000 O   0  0  0  0  0  0  0  0  0  0  0  0
    1.4251    1.2012    0.0000 N   0  0  0  0  0  0  0  0  0  0  0  0
    0.2151    2.0912    0.0000 N   0  0  0  0  0  0  0  0  0  0  0  0
    0.6751    3.5112    0.0000 C   0  0  0  0  0  0  0  0  0  0  0  0
   -0.2071    4.7243    0.0000 O   0  0  0  0  0  0  0  0  0  0  0  0
   -1.2126    1.6312    0.0000 C   0  0  0  0  0  0  0  0  0  0  0  0
   -1.5284    0.1648    0.0000 C   0  0  0  0  0  0  0  0  0  0  0  0
   -2.9571   -0.2947    0.0000 C   0  0  0  0  0  0  0  0  0  0  0  0
   -4.0701    0.7121    0.0000 C   0  0  0  0  0  0  0  0  0  0  0  0
   -5.4979    0.2522    0.0000 O   0  0  0  0  0  0  0  0  0  0  0  0
   -3.7544    2.1785    0.0000 C   0  0  0  0  0  0  0  0  0  0  0  0
   -2.3256    2.6381    0.0000 C   0  0  0  0  0  0  0  0  0  0  0  0
    1.4251   -0.2988    0.0000 C   0  0  0  0  0  0  0  0  0  0  0  0
    0.1251   -1.0488    0.0000 C   0  0  0  0  0  0  0  0  0  0  0  0
    0.1251   -2.5488    0.0000 C   0  0  0  0  0  0  0  0  0  0  0  0
    1.4251   -3.2988    0.0000 C   0  0  0  0  0  0  0  0  0  0  0  0
    2.7251   -2.5488    0.0000 C   0  0  0  0  0  0  0  0  0  0  0  0
    2.7251   -1.0488    0.0000 C   0  0  0  0  0  0  0  0  0  0  0  0
  1  2  1  0  0  0  0 
  2  3  1  0  0  0  0 
  3  4  1  0  0  0  0 
  4  5  1  0  0  0  0 
  5  6  1  0  0  0  0 
  6  7  2  0  0  0  0 
  6  8  1  0  0  0  0 
  8  9  1  0  0  0  0 
  9 10  1  0  0  0  0 
  5 10  1  0  0  0  0 
 10 11  2  0  0  0  0 
  9 12  1  0  0  0  0 
 12 13  2  0  0  0  0 
 13 14  1  0  0  0  0 
 14 15  2  0  0  0  0 
 15 16  1  0  0  0  0 
 15 17  1  0  0  0  0 
 17 18  2  0  0  0  0 
 12 18  1  0  0  0  0 
  8 19  1  0  0  0  0 
 19 20  2  0  0  0  0 
 20 21  1  0  0  0  0 
 21 22  2  0  0  0  0 
 22 23  1  0  0  0  0 
 23 24  2  0  0  0  0 
 19 24  1  0  0  0  0 
M  END
> <SMILES>
CCCCC1C(=O)N(N(C1=O)C1=CC=C(O)C=C1)C1=CC=CC=C1

$$$$

  CDK     01261921162D

 24 25  0  0  1  0  0  0  0  0999 V2000
    4.5167    2.5105    0.0000 H   0  0  0  0  0  0  0  0  0  0  0  0
    3.0395    2.2500    0.0000 C   0  0  2  0  0  0  0  0  0  0  0  0
    1.5623    2.5105    0.0000 N   0  0  0  0  0  0  0  0  0  0  0  0
    0.5981    1.3614    0.0000 C   0  0  0  0  0  0  0  0  0  0  0  0
    1.1112   -0.0481    0.0000 O   0  0  0  0  0  0  0  0  0  0  0  0
   -0.8791    1.6219    0.0000 C   0  0  0  0  0  0  0  0  0  0  0  0
   -1.8433    0.4728    0.0000 C   0  0  0  0  0  0  0  0  0  0  0  0
   -1.4774   -0.9841    0.0000 C   0  0  0  0  0  0  0  0  0  0  0  0
   -2.7504   -1.7774    0.0000 C   0  0  0  0  0  0  0  0  0  0  0  0
   -3.8971   -0.8071    0.0000 C   0  0  0  0  0  0  0  0  0  0  0  0
   -3.3356    0.5797    0.0000 S   0  0  0  0  0  0  0  0  0  0  0  0
    3.0395    3.7500    0.0000 C   0  0  0  0  0  0  0  0  0  0  0  0
    1.7405    4.5000    0.0000 O   0  0  0  0  0  0  0  0  0  0  0  0
    3.5526    0.8405    0.0000 C   0  0  2  0  0  0  0  0  0  0  0  0
    2.0753    0.5800    0.0000 H   0  0  0  0  0  0  0  0  0  0  0  0
    3.5526   -0.6595    0.0000 N   0  0  0  0  0  0  0  0  0  0  0  0
    4.8516   -1.4095    0.0000 C   0  0  0  0  0  0  0  0  0  0  0  0
    4.8516   -2.9095    0.0000 C   0  0  0  0  0  0  0  0  0  0  0  0
    6.1506   -3.6595    0.0000 O   0  0  0  0  0  0  0  0  0  0  0  0
    3.5526   -3.6595    0.0000 O   0  0  0  0  0  0  0  0  0  0  0  0
    6.1506   -0.6595    0.0000 C   0  0  0  0  0  0  0  0  0  0  0  0
    7.4497   -1.4095    0.0000 C   0  0  0  0  0  0  0  0  0  0  0  0
    6.1506    0.8405    0.0000 C   0  0  0  0  0  0  0  0  0  0  0  0
    4.8516    1.5905    0.0000 S   0  0  0  0  0  0  0  0  0  0  0  0
  2  1  1  1  0  0  0 
  2  3  1  0  0  0  0 
  3  4  1  0  0  0  0 
  4  5  2  0  0  0  0 
  4  6  1  0  0  0  0 
  6  7  1  0  0  0  0 
  7  8  2  0  0  0  0 
  8  9  1  0  0  0  0 
  9 10  2  0  0  0  0 
 10 11  1  0  0  0  0 
  7 11  1  0  0  0  0 
  2 12  1  6  0  0  0 
 12 13  2  0  0  0  0 
  2 14  1  0  0  0  0 
 14 15  1  6  0  0  0 
 14 16  1  1  0  0  0 
 16 17  1  0  0  0  0 
 17 18  1  0  0  0  0 
 18 19  1  0  0  0  0 
 18 20  2  0  0  0  0 
 17 21  2  0  0  0  0 
 21 22  1  0  0  0  0 
 21 23  1  0  0  0  0 
 23 24  1  0  0  0  0 
 14 24  1  0  0  0  0 
M  END
> <SMILES>
[H][C@@](NC(=O)CC1=CC=CS1)(C=O)[C@]1([H])NC(C(O)=O)=C(C)CS1

$$$$

  CDK     01261921162D

 40 43  0  0  1  0  0  0  0  0999 V2000
    4.8499    2.8285    0.0000 H   0  0  0  0  0  0  0  0  0  0  0  0
    3.5500    2.0800    0.0000 C   0  0  1  0  0  0  0  0  0  0  0  0
    4.4300    0.8600    0.0000 C   0  0  0  0  0  0  0  0  0  0  0  0
    3.5500   -0.3500    0.0000 C   0  0  0  0  0  0  0  0  0  0  0  0
    2.1200    0.1100    0.0000 C   0  0  1  0  0  0  0  0  0  0  0  0
    0.9038    0.9879    0.0000 H   0  0  0  0  0  0  0  0  0  0  0  0
    0.8300   -0.6400    0.0000 C   0  0  2  0  0  0  0  0  0  0  0  0
    2.1302   -1.3880    0.0000 H   0  0  0  0  0  0  0  0  0  0  0  0
    0.8300   -2.1400    0.0000 C   0  0  2  0  0  0  0  0  0  0  0  0
    2.1289   -2.8902    0.0000 O   0  0  0  0  0  0  0  0  0  0  0  0
   -0.4700   -2.8900    0.0000 C   0  0  0  0  0  0  0  0  0  0  0  0
   -1.7700   -2.1400    0.0000 C   0  0  2  0  0  0  0  0  0  0  0  0
   -1.7700   -3.6400    0.0000 H   0  0  0  0  0  0  0  0  0  0  0  0
   -3.0700   -2.8900    0.0000 C   0  0  0  0  0  0  0  0  0  0  0  0
   -4.3700   -2.1400    0.0000 C   0  0  2  0  0  0  0  0  0  0  0  0
   -5.6689   -2.8902    0.0000 O   0  0  0  0  0  0  0  0  0  0  0  0
   -4.3700   -0.6400    0.0000 C   0  0  0  0  0  0  0  0  0  0  0  0
   -3.0700    0.1100    0.0000 C   0  0  0  0  0  0  0  0  0  0  0  0
   -1.7700   -0.6400    0.0000 C   0  0  1  0  0  0  0  0  0  0  0  0
   -1.7700    0.8600    0.0000 C   0  0  0  0  0  0  0  0  0  0  0  0
   -0.4700    0.1100    0.0000 C   0  0  1  0  0  0  0  0  0  0  0  0
   -0.4707   -1.3900    0.0000 H   0  0  0  0  0  0  0  0  0  0  0  0
   -0.4700    1.6100    0.0000 C   0  0  0  0  0  0  0  0  0  0  0  0
    0.8300    2.3600    0.0000 C   0  0  2  0  0  0  0  0  0  0  0  0
    0.8325    3.8600    0.0000 O   0  0  0  0  0  0  0  0  0  0  0  0
    2.1200    1.6100    0.0000 C   0  0  2  0  0  0  0  0  0  0  0  0
    2.2765    3.1018    0.0000 C   0  0  0  0  0  0  0  0  0  0  0  0
    3.1855    3.5350    0.0000 C   0  0  2  0  0  0  0  0  0  0  0  0
    1.9710    4.4154    0.0000 C   0  0  0  0  0  0  0  0  0  0  0  0
    4.2633    4.5782    0.0000 C   0  0  0  0  0  0  0  0  0  0  0  0
    5.7057    4.1664    0.0000 C   0  0  0  0  0  0  0  0  0  0  0  0
    6.7835    5.2096    0.0000 C   0  0  0  0  0  0  0  0  0  0  0  0
    6.4190    6.6646    0.0000 O   0  0  0  0  0  0  0  0  0  0  0  0
    8.2259    4.7977    0.0000 N   0  0  0  0  0  0  0  0  0  0  0  0
    9.3037    5.8409    0.0000 C   0  0  0  0  0  0  0  0  0  0  0  0
   10.7461    5.4291    0.0000 C   0  0  0  0  0  0  0  0  0  0  0  0
   11.8239    6.4723    0.0000 S   0  0  0  0  0  0  0  0  0  0  0  0
   13.2663    6.0604    0.0000 O   0  0  0  0  0  0  0  0  0  0  0  0
   12.4800    7.8212    0.0000 O   0  0  0  0  0  0  0  0  0  0  0  0
   10.6094    7.3526    0.0000 O   0  0  0  0  0  0  0  0  0  0  0  0
  2  1  1  6  0  0  0 
  2  3  1  1  0  0  0 
  3  4  1  0  0  0  0 
  4  5  1  0  0  0  0 
  5  6  1  6  0  0  0 
  5  7  1  0  0  0  0 
  7  8  1  1  0  0  0 
  7  9  1  0  0  0  0 
  9 10  1  6  0  0  0 
  9 11  1  0  0  0  0 
 11 12  1  0  0  0  0 
 12 13  1  1  0  0  0 
 12 14  1  0  0  0  0 
 14 15  1  0  0  0  0 
 15 16  1  6  0  0  0 
 15 17  1  0  0  0  0 
 17 18  1  0  0  0  0 
 18 19  1  0  0  0  0 
 12 19  1  0  0  0  0 
 19 20  1  1  0  0  0 
 19 21  1  0  0  0  0 
  7 21  1  0  0  0  0 
 21 22  1  6  0  0  0 
 21 23  1  0  0  0  0 
 23 24  1  0  0  0  0 
 24 25  1  6  0  0  0 
 24 26  1  0  0  0  0 
  2 26  1  0  0  0  0 
  5 26  1  0  0  0  0 
 26 27  1  1  0  0  0 
  2 28  1  0  0  0  0 
 28 29  1  6  0  0  0 
 28 30  1  0  0  0  0 
 30 31  1  0  0  0  0 
 31 32  1  0  0  0  0 
 32 33  2  0  0  0  0 
 32 34  1  0  0  0  0 
 34 35  1  0  0  0  0 
 35 36  1  0  0  0  0 
 36 37  1  0  0  0  0 
 37 38  1  0  0  0  0 
 37 39  2  0  0  0  0 
 37 40  2  0  0  0  0 
M  END
> <SMILES>
[H][C@@]1(CC[C@@]2([H])[C@]3([H])[C@H](O)C[C@]4([H])C[C@H](O)CC[C@]4(C)[C@@]3([H])C[C@H](O)[C@]12C)[C@H](C)CCC(=O)NCCS(O)(=O)=O

$$$$

  CDK     01261921162D

 10  9  0  0  1  0  0  0  0  0999 V2000
    6.4952   -3.0000    0.0000 C   0  0  0  0  0  0  0  0  0  0  0  0
    5.1962   -2.2500    0.0000 C   0  0  0  0  0  0  0  0  0  0  0  0
    5.1962   -0.7500    0.0000 O   0  0  0  0  0  0  0  0  0  0  0  0
    3.8971   -3.0000    0.0000 N   0  0  0  0  0  0  0  0  0  0  0  0
    2.5981   -2.2500    0.0000 C   0  0  1  0  0  0  0  0  0  0  0  0
    1.2990   -3.0000    0.0000 C   0  0  0  0  0  0  0  0  0  0  0  0
   -0.0000   -2.2500    0.0000 S   0  0  0  0  0  0  0  0  0  0  0  0
    2.5981   -0.7500    0.0000 C   0  0  0  0  0  0  0  0  0  0  0  0
    1.2990    0.0000    0.0000 O   0  0  0  0  0  0  0  0  0  0  0  0
    3.8971   -0.0000    0.0000 O   0  0  0  0  0  0  0  0  0  0  0  0
  1  2  1  0  0  0  0 
  2  3  2  0  0  0  0 
  2  4  1  0  0  0  0 
  5  4  1  1  0  0  0 
  5  6  1  0  0  0  0 
  6  7  1  0  0  0  0 
  5  8  1  0  0  0  0 
  8  9  1  0  0  0  0 
  8 10  2  0  0  0  0 
M  END
> <SMILES>
CC(=O)N[C@@H](CS)C(O)=O

$$$$

  CDK     01261921162D

 19 20  0  0  0  0  0  0  0  0999 V2000
   -3.6089   -1.5002    0.0000 N   0  0  0  0  0  0  0  0  0  0  0  0
   -2.3100   -0.7500    0.0000 C   0  0  0  0  0  0  0  0  0  0  0  0
   -2.3100    0.7500    0.0000 N   0  0  0  0  0  0  0  0  0  0  0  0
   -1.0100    1.5000    0.0000 C   0  0  0  0  0  0  0  0  0  0  0  0
   -1.0100    3.0000    0.0000 N   0  0  0  0  0  0  0  0  0  0  0  0
    0.2900    0.7500    0.0000 C   0  0  0  0  0  0  0  0  0  0  0  0
    1.7200    1.2100    0.0000 N   0  0  0  0  0  0  0  0  0  0  0  0
    2.6000    0.0000    0.0000 C   0  0  0  0  0  0  0  0  0  0  0  0
    1.7200   -1.2100    0.0000 N   0  0  0  0  0  0  0  0  0  0  0  0
    2.1853   -2.6360    0.0000 C   0  0  0  0  0  0  0  0  0  0  0  0
    3.6529   -2.9461    0.0000 C   0  0  0  0  0  0  0  0  0  0  0  0
    4.1182   -4.3721    0.0000 O   0  0  0  0  0  0  0  0  0  0  0  0
    5.5858   -4.6822    0.0000 C   0  0  0  0  0  0  0  0  0  0  0  0
    6.0510   -6.1082    0.0000 P   0  0  0  0  0  0  0  0  0  0  0  0
    7.5186   -6.4182    0.0000 O   0  0  0  0  0  0  0  0  0  0  0  0
    4.5659   -6.3188    0.0000 O   0  0  0  0  0  0  0  0  0  0  0  0
    6.0005   -7.6073    0.0000 O   0  0  0  0  0  0  0  0  0  0  0  0
    0.2900   -0.7500    0.0000 C   0  0  0  0  0  0  0  0  0  0  0  0
   -1.0100   -1.5000    0.0000 N   0  0  0  0  0  0  0  0  0  0  0  0
  1  2  1  0  0  0  0 
  2  3  2  0  0  0  0 
  3  4  1  0  0  0  0 
  4  5  1  0  0  0  0 
  4  6  2  0  0  0  0 
  6  7  1  0  0  0  0 
  7  8  2  0  0  0  0 
  8  9  1  0  0  0  0 
  9 10  1  0  0  0  0 
 10 11  1  0  0  0  0 
 11 12  1  0  0  0  0 
 12 13  1  0  0  0  0 
 13 14  1  0  0  0  0 
 14 15  1  0  0  0  0 
 14 16  1  0  0  0  0 
 14 17  2  0  0  0  0 
  9 18  1  0  0  0  0 
  6 18  1  0  0  0  0 
 18 19  2  0  0  0  0 
  2 19  1  0  0  0  0 
M  END
> <SMILES>
NC1=NC(N)=C2N=CN(CCOCP(O)(O)=O)C2=N1

$$$$

  CDK     01261921162D

 12 13  0  0  0  0  0  0  0  0999 V2000
    4.1400   -0.1171    0.0000 O   0  0  0  0  0  0  0  0  0  0  0  0
    2.6400   -0.1200    0.0000 C   0  0  0  0  0  0  0  0  0  0  0  0
    1.7600   -1.3400    0.0000 N   0  0  0  0  0  0  0  0  0  0  0  0
    0.3400   -0.8800    0.0000 C   0  0  0  0  0  0  0  0  0  0  0  0
    0.3400    0.6200    0.0000 C   0  0  0  0  0  0  0  0  0  0  0  0
    1.7600    1.0900    0.0000 N   0  0  0  0  0  0  0  0  0  0  0  0
   -0.9600    1.3800    0.0000 C   0  0  0  0  0  0  0  0  0  0  0  0
   -0.9600    2.8800    0.0000 O   0  0  0  0  0  0  0  0  0  0  0  0
   -2.2600    0.6200    0.0000 N   0  0  0  0  0  0  0  0  0  0  0  0
   -2.2600   -0.8800    0.0000 C   0  0  0  0  0  0  0  0  0  0  0  0
   -3.5567   -1.6340    0.0000 O   0  0  0  0  0  0  0  0  0  0  0  0
   -0.9600   -1.6200    0.0000 N   0  0  0  0  0  0  0  0  0  0  0  0
  1  2  2  0  0  0  0 
  2  3  1  0  0  0  0 
  3  4  1  0  0  0  0 
  4  5  2  0  0  0  0 
  5  6  1  0  0  0  0 
  2  6  1  0  0  0  0 
  5  7  1  0  0  0  0 
  7  8  2  0  0  0  0 
  7  9  1  0  0  0  0 
  9 10  1  0  0  0  0 
 10 11  2  0  0  0  0 
 10 12  1  0  0  0  0 
  4 12  1  0  0  0  0 
M  END
> <SMILES>
O=C1NC2=C(N1)C(=O)NC(=O)N2

$$$$

  CDK     01261921162D

 35 38  0  0  0  0  0  0  0  0999 V2000
    6.2957    3.8073    0.0000 C   0  0  0  0  0  0  0  0  0  0  0  0
    4.8679    4.2673    0.0000 C   0  0  0  0  0  0  0  0  0  0  0  0
    5.5688    5.5934    0.0000 C   0  0  0  0  0  0  0  0  0  0  0  0
    3.6836    5.1878    0.0000 C   0  0  0  0  0  0  0  0  0  0  0  0
    3.7557    3.2608    0.0000 C   0  0  0  0  0  0  0  0  0  0  0  0
    2.2960    3.5724    0.0000 N   0  0  0  0  0  0  0  0  0  0  0  0
    1.5460    2.2734    0.0000 C   0  0  0  0  0  0  0  0  0  0  0  0
    2.5457    1.1650    0.0000 C   0  0  0  0  0  0  0  0  0  0  0  0
    3.9215    1.7679    0.0000 S   0  0  0  0  0  0  0  0  0  0  0  0
    2.2302   -0.3014    0.0000 C   0  0  0  0  0  0  0  0  0  0  0  0
    3.3429   -1.3086    0.0000 N   0  0  0  0  0  0  0  0  0  0  0  0
    3.0279   -2.7760    0.0000 C   0  0  0  0  0  0  0  0  0  0  0  0
    4.1404   -3.7821    0.0000 N   0  0  0  0  0  0  0  0  0  0  0  0
    1.6002   -3.2362    0.0000 N   0  0  0  0  0  0  0  0  0  0  0  0
    0.4875   -2.2290    0.0000 C   0  0  0  0  0  0  0  0  0  0  0  0
    0.8025   -0.7616    0.0000 C   0  0  0  0  0  0  0  0  0  0  0  0
    0.0542    2.1159    0.0000 C   0  0  0  0  0  0  0  0  0  0  0  0
   -0.8287    3.3296    0.0000 C   0  0  0  0  0  0  0  0  0  0  0  0
   -0.2189    4.7001    0.0000 F   0  0  0  0  0  0  0  0  0  0  0  0
   -2.3213    3.1728    0.0000 C   0  0  0  0  0  0  0  0  0  0  0  0
   -3.2031    4.3862    0.0000 N   0  0  0  0  0  0  0  0  0  0  0  0
   -4.6949    4.2292    0.0000 S   0  0  0  0  0  0  0  0  0  0  0  0
   -4.2812    2.7874    0.0000 O   0  0  0  0  0  0  0  0  0  0  0  0
   -6.0430    3.5715    0.0000 O   0  0  0  0  0  0  0  0  0  0  0  0
   -5.5767    5.4427    0.0000 C   0  0  0  0  0  0  0  0  0  0  0  0
   -4.9666    6.8139    0.0000 C   0  0  0  0  0  0  0  0  0  0  0  0
   -3.4748    6.9706    0.0000 F   0  0  0  0  0  0  0  0  0  0  0  0
   -5.8484    8.0284    0.0000 C   0  0  0  0  0  0  0  0  0  0  0  0
   -7.3401    7.8717    0.0000 C   0  0  0  0  0  0  0  0  0  0  0  0
   -7.9502    6.5004    0.0000 C   0  0  0  0  0  0  0  0  0  0  0  0
   -7.0685    5.2859    0.0000 C   0  0  0  0  0  0  0  0  0  0  0  0
   -7.6789    3.9157    0.0000 F   0  0  0  0  0  0  0  0  0  0  0  0
   -2.9310    1.8023    0.0000 C   0  0  0  0  0  0  0  0  0  0  0  0
   -2.0481    0.5886    0.0000 C   0  0  0  0  0  0  0  0  0  0  0  0
   -0.5555    0.7455    0.0000 C   0  0  0  0  0  0  0  0  0  0  0  0
  1  2  1  0  0  0  0 
  2  3  1  0  0  0  0 
  2  4  1  0  0  0  0 
  2  5  1  0  0  0  0 
  5  6  2  0  0  0  0 
  6  7  1  0  0  0  0 
  7  8  2  0  0  0  0 
  8  9  1  0  0  0  0 
  5  9  1  0  0  0  0 
  8 10  1  0  0  0  0 
 10 11  2  0  0  0  0 
 11 12  1  0  0  0  0 
 12 13  1  0  0  0  0 
 12 14  2  0  0  0  0 
 14 15  1  0  0  0  0 
 15 16  2  0  0  0  0 
 10 16  1  0  0  0  0 
  7 17  1  0  0  0  0 
 17 18  2  0  0  0  0 
 18 19  1  0  0  0  0 
 18 20  1  0  0  0  0 
 20 21  1  0  0  0  0 
 21 22  1  0  0  0  0 
 22 23  2  0  0  0  0 
 22 24  2  0  0  0  0 
 22 25  1  0  0  0  0 
 25 26  2  0  0  0  0 
 26 27  1  0  0  0  0 
 26 28  1  0  0  0  0 
 28 29  2  0  0  0  0 
 29 30  1  0  0  0  0 
 30 31  2  0  0  0  0 
 25 31  1  0  0  0  0 
 31 32  1  0  0  0  0 
 20 33  2  0  0  0  0 
 33 34  1  0  0  0  0 
 34 35  2  0  0  0  0 
 17 35  1  0  0  0  0 
M  END
> <SMILES>
CC(C)(C)C1=NC(=C(S1)C1=NC(N)=NC=C1)C1=C(F)C(NS(=O)(=O)C2=C(F)C=CC=C2F)=CC=C1

$$$$

  CDK     01261921162D

 31 34  0  0  1  0  0  0  0  0999 V2000
   -1.3000    2.2500    0.0000 H   0  0  0  0  0  0  0  0  0  0  0  0
   -1.3000    0.7500    0.0000 C   0  0  1  0  0  0  0  0  0  0  0  0
   -0.0000    1.5000    0.0000 C   0  0  0  0  0  0  0  0  0  0  0  0
    1.3000    0.7500    0.0000 N   0  0  0  0  0  0  0  0  0  0  0  0
    2.6000    1.5000    0.0000 C   0  0  0  0  0  0  0  0  0  0  0  0
    3.9000    0.7500    0.0000 C   0  0  0  0  0  0  0  0  0  0  0  0
    5.1989    1.5002    0.0000 C   0  0  0  0  0  0  0  0  0  0  0  0
    5.1987    3.0002    0.0000 O   0  0  0  0  0  0  0  0  0  0  0  0
    6.4981    0.7504    0.0000 N   0  0  0  0  0  0  0  0  0  0  0  0
    7.7970    1.5006    0.0000 C   0  0  0  0  0  0  0  0  0  0  0  0
    9.0962    0.7508    0.0000 C   0  0  0  0  0  0  0  0  0  0  0  0
   10.3959    1.5012    0.0000 C   0  0  0  0  0  0  0  0  0  0  0  0
   11.6962    0.7517    0.0000 C   0  0  0  0  0  0  0  0  0  0  0  0
   11.6966   -0.7483    0.0000 C   0  0  0  0  0  0  0  0  0  0  0  0
   12.9958   -1.4981    0.0000 F   0  0  0  0  0  0  0  0  0  0  0  0
   10.3969   -1.4988    0.0000 C   0  0  0  0  0  0  0  0  0  0  0  0
    9.0966   -0.7492    0.0000 C   0  0  0  0  0  0  0  0  0  0  0  0
    7.7980   -1.4998    0.0000 F   0  0  0  0  0  0  0  0  0  0  0  0
    3.9000   -0.7500    0.0000 C   0  0  0  0  0  0  0  0  0  0  0  0
    5.1989   -1.5002    0.0000 O   0  0  0  0  0  0  0  0  0  0  0  0
    2.6000   -1.5000    0.0000 C   0  0  0  0  0  0  0  0  0  0  0  0
    2.6000   -3.0000    0.0000 O   0  0  0  0  0  0  0  0  0  0  0  0
    1.3000   -0.7500    0.0000 C   0  0  0  0  0  0  0  0  0  0  0  0
   -0.0000   -1.5000    0.0000 C   0  0  0  0  0  0  0  0  0  0  0  0
   -0.0000   -3.0000    0.0000 O   0  0  0  0  0  0  0  0  0  0  0  0
   -1.3000   -0.7500    0.0000 N   0  0  0  0  0  0  0  0  0  0  0  0
   -2.6000   -1.5000    0.0000 C   0  0  2  0  0  0  0  0  0  0  0  0
   -2.6000   -3.0000    0.0000 C   0  0  0  0  0  0  0  0  0  0  0  0
   -3.9000   -0.7500    0.0000 C   0  0  0  0  0  0  0  0  0  0  0  0
   -3.9000    0.7500    0.0000 C   0  0  0  0  0  0  0  0  0  0  0  0
   -2.6000    1.5000    0.0000 O   0  0  0  0  0  0  0  0  0  0  0  0
  2  1  1  6  0  0  0 
  2  3  1  0  0  0  0 
  3  4  1  0  0  0  0 
  4  5  1  0  0  0  0 
  5  6  2  0  0  0  0 
  6  7  1  0  0  0  0 
  7  8  2  0  0  0  0 
  7  9  1  0  0  0  0 
  9 10  1  0  0  0  0 
 10 11  1  0  0  0  0 
 11 12  2  0  0  0  0 
 12 13  1  0  0  0  0 
 13 14  2  0  0  0  0 
 14 15  1  0  0  0  0 
 14 16  1  0  0  0  0 
 16 17  2  0  0  0  0 
 11 17  1  0  0  0  0 
 17 18  1  0  0  0  0 
  6 19  1  0  0  0  0 
 19 20  2  0  0  0  0 
 19 21  1  0  0  0  0 
 21 22  1  0  0  0  0 
 21 23  2  0  0  0  0 
  4 23  1  0  0  0  0 
 23 24  1  0  0  0  0 
 24 25  2  0  0  0  0 
 24 26  1  0  0  0  0 
  2 26  1  0  0  0  0 
 26 27  1  0  0  0  0 
 27 28  1  6  0  0  0 
 27 29  1  0  0  0  0 
 29 30  1  0  0  0  0 
 30 31  1  0  0  0  0 
  2 31  1  0  0  0  0 
M  END
> <SMILES>
[H][C@]12CN3C=C(C(=O)NCC4=CC=C(F)C=C4F)C(=O)C(O)=C3C(=O)N1[C@H](C)CCO2

$$$$

  CDK     01261921162D

 30 33  0  0  1  0  0  0  0  0999 V2000
   -0.6904    2.6183    0.0000 H   0  0  0  0  0  0  0  0  0  0  0  0
   -0.3000    1.1700    0.0000 C   0  0  1  0  0  0  0  0  0  0  0  0
    0.9900    1.9200    0.0000 S   0  0  0  0  0  0  0  0  0  0  0  0
    2.3100    1.1700    0.0000 C   0  0  0  0  0  0  0  0  0  0  0  0
    2.3100   -0.3500    0.0000 C   0  0  0  0  0  0  0  0  0  0  0  0
    3.6086   -1.1008    0.0000 C   0  0  0  0  0  0  0  0  0  0  0  0
    4.9081   -0.3516    0.0000 N   0  3  0  0  0  0  0  0  0  0  0  0
    4.9085    1.1493    0.0000 C   0  0  0  0  0  0  0  0  0  0  0  0
    6.2080    1.8985    0.0000 C   0  0  0  0  0  0  0  0  0  0  0  0
    7.5070    1.1469    0.0000 C   0  0  0  0  0  0  0  0  0  0  0  0
    7.5066   -0.3539    0.0000 C   0  0  0  0  0  0  0  0  0  0  0  0
    6.2071   -1.1032    0.0000 C   0  0  0  0  0  0  0  0  0  0  0  0
    0.9900   -1.1100    0.0000 C   0  0  0  0  0  0  0  0  0  0  0  0
   -0.3000   -0.3300    0.0000 N   0  0  0  0  0  0  0  0  0  0  0  0
   -1.8000   -0.3300    0.0000 C   0  0  0  0  0  0  0  0  0  0  0  0
   -2.8607   -1.3907    0.0000 O   0  0  0  0  0  0  0  0  0  0  0  0
   -1.8000    1.1700    0.0000 C   0  0  1  0  0  0  0  0  0  0  0  0
   -1.8000    2.6700    0.0000 H   0  0  0  0  0  0  0  0  0  0  0  0
   -3.3000    1.1700    0.0000 N   0  0  0  0  0  0  0  0  0  0  0  0
   -4.0500    2.4690    0.0000 C   0  0  0  0  0  0  0  0  0  0  0  0
   -3.3000    3.7681    0.0000 O   0  0  0  0  0  0  0  0  0  0  0  0
   -5.5500    2.4690    0.0000 C   0  0  0  0  0  0  0  0  0  0  0  0
   -6.3000    3.7681    0.0000 C   0  0  0  0  0  0  0  0  0  0  0  0
   -5.6867    5.1393    0.0000 C   0  0  0  0  0  0  0  0  0  0  0  0
   -6.8026    6.1417    0.0000 C   0  0  0  0  0  0  0  0  0  0  0  0
   -8.1004    5.3852    0.0000 C   0  0  0  0  0  0  0  0  0  0  0  0
   -7.7882    3.9219    0.0000 S   0  0  0  0  0  0  0  0  0  0  0  0
    0.9739   -2.6099    0.0000 C   0  0  0  0  0  0  0  0  0  0  0  0
    2.2649   -3.3738    0.0000 O   0  5  0  0  0  0  0  0  0  0  0  0
   -0.3331   -3.3460    0.0000 O   0  0  0  0  0  0  0  0  0  0  0  0
  2  1  1  6  0  0  0 
  2  3  1  0  0  0  0 
  3  4  1  0  0  0  0 
  4  5  1  0  0  0  0 
  5  6  1  0  0  0  0 
  6  7  1  0  0  0  0 
  7  8  2  0  0  0  0 
  8  9  1  0  0  0  0 
  9 10  2  0  0  0  0 
 10 11  1  0  0  0  0 
 11 12  2  0  0  0  0 
  7 12  1  0  0  0  0 
  5 13  2  0  0  0  0 
 13 14  1  0  0  0  0 
  2 14  1  0  0  0  0 
 14 15  1  0  0  0  0 
 15 16  2  0  0  0  0 
 15 17  1  0  0  0  0 
  2 17  1  0  0  0  0 
 17 18  1  6  0  0  0 
 17 19  1  1  0  0  0 
 19 20  2  0  0  0  0 
 20 21  1  4  0  0  0 
 20 22  1  0  0  0  0 
 22 23  1  0  0  0  0 
 23 24  2  0  0  0  0 
 24 25  1  0  0  0  0 
 25 26  2  0  0  0  0 
 26 27  1  0  0  0  0 
 23 27  1  0  0  0  0 
 13 28  1  0  0  0  0 
 28 29  1  0  0  0  0 
 28 30  2  0  0  0  0 
M  CHG  1   7   1
M  CHG  1  29  -1
M  END
> <SMILES>
[H][C@]12SCC(C[N+]3=CC=CC=C3)=C(N1C(=O)[C@@]2([H])N=C(O)CC1=CC=CS1)C([O-])=O

$$$$

  CDK     01261921162D

 37 41  0  0  1  0  0  0  0  0999 V2000
   -3.1127    2.1596    0.0000 H   0  0  0  0  0  0  0  0  0  0  0  0
   -2.6000    0.7500    0.0000 C   0  0  1  0  0  0  0  0  0  0  0  0
   -1.3000    1.5000    0.0000 O   0  0  0  0  0  0  0  0  0  0  0  0
    0.0000    0.7500    0.0000 C   0  0  0  0  0  0  0  0  0  0  0  0
    0.0000   -0.7500    0.0000 C   0  0  0  0  0  0  0  0  0  0  0  0
   -1.3000   -1.5000    0.0000 O   0  0  0  0  0  0  0  0  0  0  0  0
   -2.6000   -0.7500    0.0000 C   0  0  2  0  0  0  0  0  0  0  0  0
   -3.8989   -1.5002    0.0000 C   0  0  0  0  0  0  0  0  0  0  0  0
   -3.8987   -3.0002    0.0000 O   0  0  0  0  0  0  0  0  0  0  0  0
    1.3000   -1.5000    0.0000 C   0  0  0  0  0  0  0  0  0  0  0  0
    2.6000   -0.7500    0.0000 C   0  0  0  0  0  0  0  0  0  0  0  0
    2.6000    0.7500    0.0000 C   0  0  0  0  0  0  0  0  0  0  0  0
    1.3000    1.5000    0.0000 C   0  0  0  0  0  0  0  0  0  0  0  0
    3.8989    1.5002    0.0000 C   0  0  1  0  0  0  0  0  0  0  0  0
    4.4123    0.0908    0.0000 H   0  0  0  0  0  0  0  0  0  0  0  0
    5.3769    1.7614    0.0000 O   0  0  0  0  0  0  0  0  0  0  0  0
    5.8905    3.1716    0.0000 C   0  0  0  0  0  0  0  0  0  0  0  0
    4.9263    4.3206    0.0000 C   0  0  0  0  0  0  0  0  0  0  0  0
    5.4400    5.7308    0.0000 C   0  0  0  0  0  0  0  0  0  0  0  0
    4.4758    6.8798    0.0000 O   0  0  0  0  0  0  0  0  0  0  0  0
    6.9179    5.9919    0.0000 C   0  0  0  0  0  0  0  0  0  0  0  0
    7.8822    4.8429    0.0000 C   0  0  0  0  0  0  0  0  0  0  0  0
    9.3594    5.1032    0.0000 O   0  0  0  0  0  0  0  0  0  0  0  0
    7.3685    3.4327    0.0000 C   0  0  0  0  0  0  0  0  0  0  0  0
    3.4484    4.0594    0.0000 C   0  0  0  0  0  0  0  0  0  0  0  0
    2.4841    5.2084    0.0000 O   0  0  0  0  0  0  0  0  0  0  0  0
    2.9347    2.6492    0.0000 C   0  0  2  0  0  0  0  0  0  0  0  0
    1.4574    2.3889    0.0000 O   0  0  0  0  0  0  0  0  0  0  0  0
   -4.0772    0.4897    0.0000 C   0  0  0  0  0  0  0  0  0  0  0  0
   -4.5903   -0.9207    0.0000 C   0  0  0  0  0  0  0  0  0  0  0  0
   -6.0675   -1.1811    0.0000 C   0  0  0  0  0  0  0  0  0  0  0  0
   -6.5809   -2.5905    0.0000 O   0  0  0  0  0  0  0  0  0  0  0  0
   -8.0582   -2.8505    0.0000 C   0  0  0  0  0  0  0  0  0  0  0  0
   -7.0317   -0.0309    0.0000 C   0  0  0  0  0  0  0  0  0  0  0  0
   -8.5090   -0.2913    0.0000 O   0  0  0  0  0  0  0  0  0  0  0  0
   -6.5187    1.3795    0.0000 C   0  0  0  0  0  0  0  0  0  0  0  0
   -5.0415    1.6398    0.0000 C   0  0  0  0  0  0  0  0  0  0  0  0
  2  1  1  6  0  0  0 
  2  3  1  0  0  0  0 
  3  4  1  0  0  0  0 
  4  5  2  0  0  0  0 
  5  6  1  0  0  0  0 
  6  7  1  0  0  0  0 
  2  7  1  0  0  0  0 
  7  8  1  6  0  0  0 
  8  9  1  0  0  0  0 
  5 10  1  0  0  0  0 
 10 11  2  0  0  0  0 
 11 12  1  0  0  0  0 
 12 13  2  0  0  0  0 
  4 13  1  0  0  0  0 
 14 12  1  6  0  0  0 
 14 15  1  1  0  0  0 
 14 16  1  0  0  0  0 
 16 17  1  0  0  0  0 
 17 18  2  0  0  0  0 
 18 19  1  0  0  0  0 
 19 20  1  0  0  0  0 
 19 21  2  0  0  0  0 
 21 22  1  0  0  0  0 
 22 23  1  0  0  0  0 
 22 24  2  0  0  0  0 
 17 24  1  0  0  0  0 
 18 25  1  0  0  0  0 
 25 26  2  0  0  0  0 
 25 27  1  0  0  0  0 
 14 27  1  0  0  0  0 
 27 28  1  1  0  0  0 
  2 29  1  1  0  0  0 
 29 30  2  0  0  0  0 
 30 31  1  0  0  0  0 
 31 32  1  0  0  0  0 
 32 33  1  0  0  0  0 
 31 34  2  0  0  0  0 
 34 35  1  0  0  0  0 
 34 36  1  0  0  0  0 
 36 37  2  0  0  0  0 
 29 37  1  0  0  0  0 
M  END
> <SMILES>
[H][C@@]1(OC2=C(O[C@@H]1CO)C=CC(=C2)[C@@]1([H])OC2=C(C(O)=CC(O)=C2)C(=O)[C@@H]1O)C1=CC(OC)=C(O)C=C1

$$$$

  CDK     01261921162D

 26 29  0  0  0  0  0  0  0  0999 V2000
   -3.1786   12.4968    0.0000 C   0  0  0  0  0  0  0  0  0  0  0  0
   -3.3928   11.0122    0.0000 C   0  0  0  0  0  0  0  0  0  0  0  0
   -2.2141   10.0844    0.0000 S   0  0  0  0  0  0  0  0  0  0  0  0
   -0.7892    9.6157    0.0000 O   0  0  0  0  0  0  0  0  0  0  0  0
   -1.5051   11.4062    0.0000 O   0  0  0  0  0  0  0  0  0  0  0  0
   -2.4283    8.5998    0.0000 N   0  0  0  0  0  0  0  0  0  0  0  0
   -1.5300    7.3985    0.0000 C   0  0  0  0  0  0  0  0  0  0  0  0
   -2.7312    6.5002    0.0000 C   0  0  0  0  0  0  0  0  0  0  0  0
   -3.9324    5.6018    0.0000 C   0  0  0  0  0  0  0  0  0  0  0  0
   -5.3111    6.1930    0.0000 C   0  0  0  0  0  0  0  0  0  0  0  0
   -6.6897    6.7841    0.0000 N   0  0  0  0  0  0  0  0  0  0  0  0
   -3.6295    7.7014    0.0000 C   0  0  0  0  0  0  0  0  0  0  0  0
   -1.8329    5.2989    0.0000 N   0  0  0  0  0  0  0  0  0  0  0  0
   -2.2689    3.8616    0.0000 C   0  0  0  0  0  0  0  0  0  0  0  0
   -1.0500    2.9999    0.0000 C   0  0  0  0  0  0  0  0  0  0  0  0
    0.1512    3.8982    0.0000 C   0  0  0  0  0  0  0  0  0  0  0  0
   -0.3308    5.3109    0.0000 N   0  0  0  0  0  0  0  0  0  0  0  0
   -1.0300    1.5000    0.0000 C   0  0  0  0  0  0  0  0  0  0  0  0
    0.2900    0.7800    0.0000 C   0  0  0  0  0  0  0  0  0  0  0  0
    1.7000    1.1800    0.0000 C   0  0  0  0  0  0  0  0  0  0  0  0
    2.6100    0.0100    0.0000 C   0  0  0  0  0  0  0  0  0  0  0  0
    1.7000   -1.1900    0.0000 N   0  0  0  0  0  0  0  0  0  0  0  0
    0.2900   -0.7800    0.0000 C   0  0  0  0  0  0  0  0  0  0  0  0
   -1.0300   -1.5000    0.0000 N   0  0  0  0  0  0  0  0  0  0  0  0
   -2.2700   -0.7800    0.0000 C   0  0  0  0  0  0  0  0  0  0  0  0
   -2.2700    0.7800    0.0000 N   0  0  0  0  0  0  0  0  0  0  0  0
  1  2  1  0  0  0  0 
  2  3  1  0  0  0  0 
  3  4  2  0  0  0  0 
  3  5  2  0  0  0  0 
  3  6  1  0  0  0  0 
  6  7  1  0  0  0  0 
  7  8  1  0  0  0  0 
  8  9  1  0  0  0  0 
  9 10  1  0  0  0  0 
 10 11  3  0  0  0  0 
  8 12  1  0  0  0  0 
  6 12  1  0  0  0  0 
  8 13  1  0  0  0  0 
 13 14  1  0  0  0  0 
 14 15  2  0  0  0  0 
 15 16  1  0  0  0  0 
 16 17  2  0  0  0  0 
 13 17  1  0  0  0  0 
 15 18  1  0  0  0  0 
 18 19  2  0  0  0  0 
 19 20  1  0  0  0  0 
 20 21  2  0  0  0  0 
 21 22  1  0  0  0  0 
 22 23  1  0  0  0  0 
 19 23  1  0  0  0  0 
 23 24  2  0  0  0  0 
 24 25  1  0  0  0  0 
 25 26  2  0  0  0  0 
 18 26  1  0  0  0  0 
M  END
> <SMILES>
CCS(=O)(=O)N1CC(CC#N)(C1)N1C=C(C=N1)C1=C2C=CNC2=NC=N1

$$$$

  CDK     01261921162D

 13 14  0  0  0  0  0  0  0  0999 V2000
   -2.6377    0.8500    0.0000 C   0  0  0  0  0  0  0  0  0  0  0  0
   -1.2100    0.3900    0.0000 C   0  0  0  0  0  0  0  0  0  0  0  0
    0.0000    1.2800    0.0000 N   0  0  0  0  0  0  0  0  0  0  0  0
    1.2100    0.3900    0.0000 N   0  0  0  0  0  0  0  0  0  0  0  0
    0.7500   -1.0300    0.0000 C   0  0  0  0  0  0  0  0  0  0  0  0
    1.6322   -2.2431    0.0000 O   0  0  0  0  0  0  0  0  0  0  0  0
   -0.7500   -1.0300    0.0000 C   0  0  0  0  0  0  0  0  0  0  0  0
    2.6377    0.8500    0.0000 C   0  0  0  0  0  0  0  0  0  0  0  0
    3.7502   -0.1574    0.0000 C   0  0  0  0  0  0  0  0  0  0  0  0
    5.1780    0.3026    0.0000 C   0  0  0  0  0  0  0  0  0  0  0  0
    5.4932    1.7699    0.0000 C   0  0  0  0  0  0  0  0  0  0  0  0
    4.3807    2.7773    0.0000 C   0  0  0  0  0  0  0  0  0  0  0  0
    2.9530    2.3173    0.0000 C   0  0  0  0  0  0  0  0  0  0  0  0
  1  2  1  0  0  0  0 
  2  3  2  0  0  0  0 
  3  4  1  0  0  0  0 
  4  5  1  0  0  0  0 
  5  6  2  0  0  0  0 
  5  7  1  0  0  0  0 
  2  7  1  0  0  0  0 
  4  8  1  0  0  0  0 
  8  9  2  0  0  0  0 
  9 10  1  0  0  0  0 
 10 11  2  0  0  0  0 
 11 12  1  0  0  0  0 
 12 13  2  0  0  0  0 
  8 13  1  0  0  0  0 
M  END
> <SMILES>
CC1=NN(C(=O)C1)C1=CC=CC=C1

$$$$

  CDK     01261921162D

 24 27  0  0  0  0  0  0  0  0999 V2000
   10.6542    2.3343    0.0000 C   0  0  0  0  0  0  0  0  0  0  0  0
    9.1542    2.3373    0.0000 N   0  0  0  0  0  0  0  0  0  0  0  0
    8.4017    1.0397    0.0000 C   0  0  0  0  0  0  0  0  0  0  0  0
    6.9017    1.0426    0.0000 C   0  0  0  0  0  0  0  0  0  0  0  0
    6.1485   -0.2555    0.0000 C   0  0  0  0  0  0  0  0  0  0  0  0
    4.6477   -0.2533    0.0000 C   0  0  0  0  0  0  0  0  0  0  0  0
    3.9000    1.0471    0.0000 C   0  0  0  0  0  0  0  0  0  0  0  0
    4.6532    2.3452    0.0000 C   0  0  0  0  0  0  0  0  0  0  0  0
    6.1540    2.3430    0.0000 C   0  0  0  0  0  0  0  0  0  0  0  0
    2.4000    1.0500    0.0000 C   0  0  0  0  0  0  0  0  0  0  0  0
    1.5200   -0.1600    0.0000 C   0  0  0  0  0  0  0  0  0  0  0  0
    2.0400   -1.5600    0.0000 C   0  0  0  0  0  0  0  0  0  0  0  0
    1.2800   -2.8500    0.0000 C   0  0  0  0  0  0  0  0  0  0  0  0
   -0.2100   -3.0500    0.0000 N   0  0  0  0  0  0  0  0  0  0  0  0
   -1.2900   -2.0200    0.0000 C   0  0  0  0  0  0  0  0  0  0  0  0
   -2.6835   -2.5751    0.0000 O   0  0  0  0  0  0  0  0  0  0  0  0
   -1.2100   -0.4500    0.0000 C   0  0  0  0  0  0  0  0  0  0  0  0
    0.0900    0.3000    0.0000 C   0  0  0  0  0  0  0  0  0  0  0  0
    0.0900    1.8000    0.0000 C   0  0  0  0  0  0  0  0  0  0  0  0
    1.5200    2.2700    0.0000 N   0  0  0  0  0  0  0  0  0  0  0  0
   -1.2100    2.5500    0.0000 C   0  0  0  0  0  0  0  0  0  0  0  0
   -2.5100    1.8000    0.0000 C   0  0  0  0  0  0  0  0  0  0  0  0
   -3.8089    2.5502    0.0000 F   0  0  0  0  0  0  0  0  0  0  0  0
   -2.5100    0.3000    0.0000 C   0  0  0  0  0  0  0  0  0  0  0  0
  1  2  1  0  0  0  0 
  2  3  1  0  0  0  0 
  3  4  1  0  0  0  0 
  4  5  2  0  0  0  0 
  5  6  1  0  0  0  0 
  6  7  2  0  0  0  0 
  7  8  1  0  0  0  0 
  8  9  2  0  0  0  0 
  4  9  1  0  0  0  0 
  7 10  1  0  0  0  0 
 10 11  2  0  0  0  0 
 11 12  1  0  0  0  0 
 12 13  1  0  0  0  0 
 13 14  1  0  0  0  0 
 14 15  1  0  0  0  0 
 15 16  2  0  0  0  0 
 15 17  1  0  0  0  0 
 17 18  2  0  0  0  0 
 11 18  1  0  0  0  0 
 18 19  1  0  0  0  0 
 19 20  1  0  0  0  0 
 10 20  1  0  0  0  0 
 19 21  2  0  0  0  0 
 21 22  1  0  0  0  0 
 22 23  1  0  0  0  0 
 22 24  2  0  0  0  0 
 17 24  1  0  0  0  0 
M  END
> <SMILES>
CNCC1=CC=C(C=C1)C1=C2CCNC(=O)C3=C2C(N1)=CC(F)=C3

$$$$

  CDK     01261921162D

 33 35  0  0  0  0  0  0  0  0999 V2000
   -3.9354   -4.4759    0.0000 C   0  0  0  0  0  0  0  0  0  0  0  0
   -3.9354   -2.9759    0.0000 C   0  0  0  0  0  0  0  0  0  0  0  0
   -4.4484   -1.5663    0.0000 C   0  0  0  0  0  0  0  0  0  0  0  0
   -5.4126   -3.2363    0.0000 O   0  0  0  0  0  0  0  0  0  0  0  0
   -2.6364   -2.2259    0.0000 C   0  0  0  0  0  0  0  0  0  0  0  0
   -2.6364   -0.7259    0.0000 N   0  0  0  0  0  0  0  0  0  0  0  0
   -1.3373    0.0241    0.0000 C   0  0  0  0  0  0  0  0  0  0  0  0
   -0.0378   -0.7267    0.0000 N   0  0  0  0  0  0  0  0  0  0  0  0
    1.2612    0.0233    0.0000 C   0  0  0  0  0  0  0  0  0  0  0  0
    1.2607    1.5241    0.0000 N   0  0  0  0  0  0  0  0  0  0  0  0
   -0.0388    2.2750    0.0000 C   0  0  0  0  0  0  0  0  0  0  0  0
   -0.0385    3.7750    0.0000 N   0  0  0  0  0  0  0  0  0  0  0  0
    1.2606    4.5248    0.0000 C   0  0  0  0  0  0  0  0  0  0  0  0
    2.5600    3.7737    0.0000 C   0  0  0  0  0  0  0  0  0  0  0  0
    3.8592    4.5235    0.0000 C   0  0  0  0  0  0  0  0  0  0  0  0
    3.8589    6.0243    0.0000 N   0  0  0  0  0  0  0  0  0  0  0  0
    2.5595    6.7754    0.0000 C   0  0  0  0  0  0  0  0  0  0  0  0
    1.2604    6.0256    0.0000 C   0  0  0  0  0  0  0  0  0  0  0  0
    5.1582    3.7735    0.0000 C   0  0  0  0  0  0  0  0  0  0  0  0
    6.4573    4.5235    0.0000 F   0  0  0  0  0  0  0  0  0  0  0  0
    4.1940    2.6244    0.0000 F   0  0  0  0  0  0  0  0  0  0  0  0
    6.1224    2.6244    0.0000 F   0  0  0  0  0  0  0  0  0  0  0  0
   -1.3378    1.5250    0.0000 N   0  0  0  0  0  0  0  0  0  0  0  0
    2.5604   -0.7265    0.0000 C   0  0  0  0  0  0  0  0  0  0  0  0
    3.8514    0.0218    0.0000 N   0  0  0  0  0  0  0  0  0  0  0  0
    5.1604   -0.7300    0.0000 C   0  0  0  0  0  0  0  0  0  0  0  0
    5.1584   -2.2300    0.0000 C   0  0  0  0  0  0  0  0  0  0  0  0
    3.8473   -2.9882    0.0000 C   0  0  0  0  0  0  0  0  0  0  0  0
    2.5584   -2.2265    0.0000 C   0  0  0  0  0  0  0  0  0  0  0  0
    6.4591    0.0206    0.0000 C   0  0  0  0  0  0  0  0  0  0  0  0
    7.7585   -0.7288    0.0000 F   0  0  0  0  0  0  0  0  0  0  0  0
    7.4227    1.1701    0.0000 F   0  0  0  0  0  0  0  0  0  0  0  0
    5.4944    1.1692    0.0000 F   0  0  0  0  0  0  0  0  0  0  0  0
  1  2  1  0  0  0  0 
  2  3  1  0  0  0  0 
  2  4  1  0  0  0  0 
  2  5  1  0  0  0  0 
  5  6  1  0  0  0  0 
  6  7  1  0  0  0  0 
  7  8  2  0  0  0  0 
  8  9  1  0  0  0  0 
  9 10  2  0  0  0  0 
 10 11  1  0  0  0  0 
 11 12  1  0  0  0  0 
 12 13  1  0  0  0  0 
 13 14  2  0  0  0  0 
 14 15  1  0  0  0  0 
 15 16  2  0  0  0  0 
 16 17  1  0  0  0  0 
 17 18  2  0  0  0  0 
 13 18  1  0  0  0  0 
 15 19  1  0  0  0  0 
 19 20  1  0  0  0  0 
 19 21  1  0  0  0  0 
 19 22  1  0  0  0  0 
 11 23  2  0  0  0  0 
  7 23  1  0  0  0  0 
  9 24  1  0  0  0  0 
 24 25  2  0  0  0  0 
 25 26  1  0  0  0  0 
 26 27  2  0  0  0  0 
 27 28  1  0  0  0  0 
 28 29  2  0  0  0  0 
 24 29  1  0  0  0  0 
 26 30  1  0  0  0  0 
 30 31  1  0  0  0  0 
 30 32  1  0  0  0  0 
 30 33  1  0  0  0  0 
M  END
> <SMILES>
CC(C)(O)CNC1=NC(=NC(NC2=CC(=NC=C2)C(F)(F)F)=N1)C1=NC(=CC=C1)C(F)(F)F

$$$$

  CDK     01261921162D

 21 21  0  0  1  0  0  0  0  0999 V2000
   -4.2212    7.6329    0.0000 C   0  0  0  0  0  0  0  0  0  0  0  0
   -4.2212    6.1329    0.0000 O   0  0  0  0  0  0  0  0  0  0  0  0
   -2.9221    5.3829    0.0000 C   0  0  0  0  0  0  0  0  0  0  0  0
   -1.6231    6.1329    0.0000 O   0  0  0  0  0  0  0  0  0  0  0  0
   -2.9221    3.8829    0.0000 C   0  0  2  0  0  0  0  0  0  0  0  0
   -4.2212    3.1329    0.0000 C   0  0  0  0  0  0  0  0  0  0  0  0
   -5.5202    3.8829    0.0000 C   0  0  0  0  0  0  0  0  0  0  0  0
   -6.8197    3.1321    0.0000 C   0  0  0  0  0  0  0  0  0  0  0  0
   -8.1187    3.8821    0.0000 C   0  0  0  0  0  0  0  0  0  0  0  0
   -8.1183    5.3829    0.0000 C   0  0  0  0  0  0  0  0  0  0  0  0
   -6.8187    6.1337    0.0000 C   0  0  0  0  0  0  0  0  0  0  0  0
   -5.5197    5.3837    0.0000 C   0  0  0  0  0  0  0  0  0  0  0  0
   -1.6231    3.1329    0.0000 N   0  0  0  0  0  0  0  0  0  0  0  0
   -0.3240    3.8829    0.0000 C   0  0  0  0  0  0  0  0  0  0  0  0
   -0.3240    5.3829    0.0000 O   0  0  0  0  0  0  0  0  0  0  0  0
    0.9750    3.1329    0.0000 C   0  0  1  0  0  0  0  0  0  0  0  0
    0.9750    1.6329    0.0000 N   0  0  0  0  0  0  0  0  0  0  0  0
    2.2740    3.8829    0.0000 C   0  0  0  0  0  0  0  0  0  0  0  0
    3.5731    3.1329    0.0000 C   0  0  0  0  0  0  0  0  0  0  0  0
    3.5731    1.6329    0.0000 O   0  0  0  0  0  0  0  0  0  0  0  0
    4.8721    3.8829    0.0000 O   0  0  0  0  0  0  0  0  0  0  0  0
  1  2  1  0  0  0  0 
  2  3  1  0  0  0  0 
  3  4  2  0  0  0  0 
  3  5  1  0  0  0  0 
  5  6  1  0  0  0  0 
  6  7  1  0  0  0  0 
  7  8  2  0  0  0  0 
  8  9  1  0  0  0  0 
  9 10  2  0  0  0  0 
 10 11  1  0  0  0  0 
 11 12  2  0  0  0  0 
  7 12  1  0  0  0  0 
  5 13  1  1  0  0  0 
 13 14  1  0  0  0  0 
 14 15  2  0  0  0  0 
 14 16  1  0  0  0  0 
 16 17  1  6  0  0  0 
 16 18  1  0  0  0  0 
 18 19  1  0  0  0  0 
 19 20  2  0  0  0  0 
 19 21  1  0  0  0  0 
M  END
> <SMILES>
COC(=O)[C@H](Cc1ccccc1)NC(=O)[C@@H](N)CC(=O)O

$$$$

  CDK     01261921162D

 23 25  0  0  1  0  0  0  0  0999 V2000
    2.9146   -0.7839    0.0000 C   0  0  0  0  0  0  0  0  0  0  0  0
    1.8000    0.2200    0.0000 C   0  0  0  0  0  0  0  0  0  0  0  0
    2.9146    1.2239    0.0000 C   0  0  0  0  0  0  0  0  0  0  0  0
    0.9200    1.4300    0.0000 S   0  0  0  0  0  0  0  0  0  0  0  0
   -0.5100    0.9700    0.0000 C   0  0  2  0  0  0  0  0  0  0  0  0
   -2.0100    0.9700    0.0000 C   0  0  2  0  0  0  0  0  0  0  0  0
   -3.0707    2.0307    0.0000 N   0  0  0  0  0  0  0  0  0  0  0  0
   -4.5195    1.6424    0.0000 C   0  0  0  0  0  0  0  0  0  0  0  0
   -4.9078    0.1935    0.0000 O   0  0  0  0  0  0  0  0  0  0  0  0
   -5.5802    2.7031    0.0000 C   0  0  0  0  0  0  0  0  0  0  0  0
   -7.0291    2.3149    0.0000 C   0  0  0  0  0  0  0  0  0  0  0  0
   -7.4171    0.8650    0.0000 C   0  0  0  0  0  0  0  0  0  0  0  0
   -8.8660    0.4768    0.0000 C   0  0  0  0  0  0  0  0  0  0  0  0
   -9.9269    1.5384    0.0000 C   0  0  0  0  0  0  0  0  0  0  0  0
   -9.5389    2.9882    0.0000 C   0  0  0  0  0  0  0  0  0  0  0  0
   -8.0900    3.3765    0.0000 C   0  0  0  0  0  0  0  0  0  0  0  0
   -2.0100   -0.5300    0.0000 C   0  0  0  0  0  0  0  0  0  0  0  0
   -3.0707   -1.5907    0.0000 O   0  0  0  0  0  0  0  0  0  0  0  0
   -0.5100   -0.5300    0.0000 N   0  0  0  0  0  0  0  0  0  0  0  0
    0.9200   -0.9900    0.0000 C   0  0  1  0  0  0  0  0  0  0  0  0
    1.3853   -2.4160    0.0000 C   0  0  0  0  0  0  0  0  0  0  0  0
    0.3830   -3.5320    0.0000 O   0  0  0  0  0  0  0  0  0  0  0  0
    2.8529   -2.7261    0.0000 O   0  0  0  0  0  0  0  0  0  0  0  0
  1  2  1  0  0  0  0 
  2  3  1  0  0  0  0 
  2  4  1  0  0  0  0 
  4  5  1  0  0  0  0 
  5  6  1  0  0  0  0 
  6  7  1  1  0  0  0 
  7  8  1  0  0  0  0 
  8  9  2  0  0  0  0 
  8 10  1  0  0  0  0 
 10 11  1  0  0  0  0 
 11 12  2  0  0  0  0 
 12 13  1  0  0  0  0 
 13 14  2  0  0  0  0 
 14 15  1  0  0  0  0 
 15 16  2  0  0  0  0 
 11 16  1  0  0  0  0 
  6 17  1  0  0  0  0 
 17 18  2  0  0  0  0 
 17 19  1  0  0  0  0 
  5 19  1  1  0  0  0 
 19 20  1  0  0  0  0 
  2 20  1  0  0  0  0 
 20 21  1  6  0  0  0 
 21 22  2  0  0  0  0 
 21 23  1  0  0  0  0 
M  END
> <SMILES>
CC1(C)S[C@@H]2[C@H](NC(=O)Cc3ccccc3)C(=O)N2[C@H]1C(=O)O

$$$$

  CDK     01261921162D

 17 18  0  0  0  0  0  0  0  0999 V2000
   -5.1981    0.7547    0.0000 N   0  0  0  0  0  0  0  0  0  0  0  0
   -3.8977    1.5024    0.0000 S   0  0  0  0  0  0  0  0  0  0  0  0
   -2.9314    2.6497    0.0000 O   0  0  0  0  0  0  0  0  0  0  0  0
   -4.8598    2.6532    0.0000 O   0  0  0  0  0  0  0  0  0  0  0  0
   -2.6000    0.7500    0.0000 C   0  0  0  0  0  0  0  0  0  0  0  0
   -1.2900    1.5000    0.0000 C   0  0  0  0  0  0  0  0  0  0  0  0
    0.0000    0.7500    0.0000 C   0  0  0  0  0  0  0  0  0  0  0  0
    0.0000   -0.7500    0.0000 C   0  0  0  0  0  0  0  0  0  0  0  0
    1.3000   -1.5000    0.0000 N   0  0  0  0  0  0  0  0  0  0  0  0
    2.6000   -0.7500    0.0000 C   0  0  0  0  0  0  0  0  0  0  0  0
    2.6000    0.7500    0.0000 N   0  0  0  0  0  0  0  0  0  0  0  0
    1.3000    1.5000    0.0000 S   0  0  0  0  0  0  0  0  0  0  0  0
    2.2641    2.6492    0.0000 O   0  0  0  0  0  0  0  0  0  0  0  0
    0.3359    2.6492    0.0000 O   0  0  0  0  0  0  0  0  0  0  0  0
   -1.2900   -1.5000    0.0000 C   0  0  0  0  0  0  0  0  0  0  0  0
   -2.6000   -0.7500    0.0000 C   0  0  0  0  0  0  0  0  0  0  0  0
   -3.8977   -1.5024    0.0000 Cl  0  0  0  0  0  0  0  0  0  0  0  0
  1  2  1  0  0  0  0 
  2  3  2  0  0  0  0 
  2  4  2  0  0  0  0 
  2  5  1  0  0  0  0 
  5  6  2  0  0  0  0 
  6  7  1  0  0  0  0 
  7  8  2  0  0  0  0 
  8  9  1  0  0  0  0 
  9 10  1  0  0  0  0 
 10 11  1  0  0  0  0 
 11 12  1  0  0  0  0 
  7 12  1  0  0  0  0 
 12 13  2  0  0  0  0 
 12 14  2  0  0  0  0 
  8 15  1  0  0  0  0 
 15 16  2  0  0  0  0 
  5 16  1  0  0  0  0 
 16 17  1  0  0  0  0 
M  END
> <SMILES>
NS(=O)(=O)c1cc2c(NCNS2(=O)=O)cc1Cl

$$$$

  CDK     01261921162D

 33 35  0  0  1  0  0  0  0  0999 V2000
   -6.4970    1.5006    0.0000 C   0  0  0  0  0  0  0  0  0  0  0  0
   -5.1981    0.7504    0.0000 N   0  0  0  0  0  0  0  0  0  0  0  0
   -3.8989    1.5002    0.0000 C   0  0  0  0  0  0  0  0  0  0  0  0
   -2.6000    0.7500    0.0000 C   0  0  0  0  0  0  0  0  0  0  0  0
   -2.6000   -0.7500    0.0000 C   0  0  0  0  0  0  0  0  0  0  0  0
   -1.3000   -1.5000    0.0000 N   0  0  0  0  0  0  0  0  0  0  0  0
    0.0000   -0.7500    0.0000 C   0  0  0  0  0  0  0  0  0  0  0  0
    1.3000   -1.5000    0.0000 N   0  0  0  0  0  0  0  0  0  0  0  0
    2.6000   -0.7500    0.0000 C   0  0  0  0  0  0  0  0  0  0  0  0
    3.8989   -1.5002    0.0000 N   0  0  0  0  0  0  0  0  0  0  0  0
    2.6000    0.7500    0.0000 N   0  0  0  0  0  0  0  0  0  0  0  0
    1.3000    1.5000    0.0000 C   0  0  0  0  0  0  0  0  0  0  0  0
    1.3000    3.0000    0.0000 N   0  0  0  0  0  0  0  0  0  0  0  0
    0.0000    0.7500    0.0000 C   0  0  0  0  0  0  0  0  0  0  0  0
   -1.3000    1.5000    0.0000 N   0  0  0  0  0  0  0  0  0  0  0  0
   -5.1983   -0.7496    0.0000 C   0  0  0  0  0  0  0  0  0  0  0  0
   -3.8988   -1.5004    0.0000 C   0  0  0  0  0  0  0  0  0  0  0  0
   -3.8983   -3.0012    0.0000 C   0  0  0  0  0  0  0  0  0  0  0  0
   -5.1974   -3.7512    0.0000 C   0  0  0  0  0  0  0  0  0  0  0  0
   -6.4969   -3.0004    0.0000 C   0  0  0  0  0  0  0  0  0  0  0  0
   -6.4974   -1.4996    0.0000 C   0  0  0  0  0  0  0  0  0  0  0  0
   -5.1976   -5.2512    0.0000 C   0  0  0  0  0  0  0  0  0  0  0  0
   -3.8987   -6.0015    0.0000 O   0  0  0  0  0  0  0  0  0  0  0  0
   -6.4968   -6.0010    0.0000 N   0  0  0  0  0  0  0  0  0  0  0  0
   -6.4970   -7.5010    0.0000 C   0  0  1  0  0  0  0  0  0  0  0  0
   -7.7962   -8.2508    0.0000 C   0  0  0  0  0  0  0  0  0  0  0  0
   -7.7964   -9.7508    0.0000 C   0  0  0  0  0  0  0  0  0  0  0  0
   -9.0956  -10.5006    0.0000 C   0  0  0  0  0  0  0  0  0  0  0  0
  -10.3945   -9.7504    0.0000 O   0  0  0  0  0  0  0  0  0  0  0  0
   -9.0958  -12.0006    0.0000 O   0  0  0  0  0  0  0  0  0  0  0  0
   -5.1981   -8.2512    0.0000 C   0  0  0  0  0  0  0  0  0  0  0  0
   -3.8989   -7.5015    0.0000 O   0  0  0  0  0  0  0  0  0  0  0  0
   -5.1983   -9.7512    0.0000 O   0  0  0  0  0  0  0  0  0  0  0  0
  1  2  1  0  0  0  0 
  2  3  1  0  0  0  0 
  3  4  1  0  0  0  0 
  4  5  2  0  0  0  0 
  5  6  1  0  0  0  0 
  6  7  2  0  0  0  0 
  7  8  1  0  0  0  0 
  8  9  2  0  0  0  0 
  9 10  1  0  0  0  0 
  9 11  1  0  0  0  0 
 11 12  2  0  0  0  0 
 12 13  1  0  0  0  0 
 12 14  1  0  0  0  0 
  7 14  1  0  0  0  0 
 14 15  2  0  0  0  0 
  4 15  1  0  0  0  0 
  2 16  1  0  0  0  0 
 16 17  2  0  0  0  0 
 17 18  1  0  0  0  0 
 18 19  2  0  0  0  0 
 19 20  1  0  0  0  0 
 20 21  2  0  0  0  0 
 16 21  1  0  0  0  0 
 19 22  1  0  0  0  0 
 22 23  2  0  0  0  0 
 22 24  1  0  0  0  0 
 25 24  1  6  0  0  0 
 25 26  1  0  0  0  0 
 26 27  1  0  0  0  0 
 27 28  1  0  0  0  0 
 28 29  2  0  0  0  0 
 28 30  1  0  0  0  0 
 25 31  1  0  0  0  0 
 31 32  2  0  0  0  0 
 31 33  1  0  0  0  0 
M  END
> <SMILES>
CN(Cc1cnc2nc(N)nc(N)c2n1)c3ccc(cc3)C(=O)N[C@@H](CCC(=O)O)C(=O)O

$$$$

  CDK     01261921162D

 25 24  0  0  0  0  0  0  0  0999 V2000
   29.8779   -2.2500    0.0000 C   0  0  0  0  0  0  0  0  0  0  0  0
   28.5788   -1.5000    0.0000 C   0  0  0  0  0  0  0  0  0  0  0  0
   27.2798   -2.2500    0.0000 C   0  0  0  0  0  0  0  0  0  0  0  0
   25.9808   -1.5000    0.0000 C   0  0  0  0  0  0  0  0  0  0  0  0
   24.6817   -2.2500    0.0000 C   0  0  0  0  0  0  0  0  0  0  0  0
   23.3827   -1.5000    0.0000 C   0  0  0  0  0  0  0  0  0  0  0  0
   22.0836   -2.2500    0.0000 C   0  0  0  0  0  0  0  0  0  0  0  0
   20.7846   -1.5000    0.0000 C   0  0  0  0  0  0  0  0  0  0  0  0
   19.4856   -2.2500    0.0000 C   0  0  0  0  0  0  0  0  0  0  0  0
   18.1865   -1.5000    0.0000 C   0  0  0  0  0  0  0  0  0  0  0  0
   16.8875   -2.2500    0.0000 C   0  0  0  0  0  0  0  0  0  0  0  0
   15.5885   -1.5000    0.0000 C   0  0  0  0  0  0  0  0  0  0  0  0
   14.2894   -2.2500    0.0000 C   0  0  0  0  0  0  0  0  0  0  0  0
   12.9904   -1.5000    0.0000 C   0  0  0  0  0  0  0  0  0  0  0  0
   11.6913   -2.2500    0.0000 C   0  0  0  0  0  0  0  0  0  0  0  0
   10.3923   -1.5000    0.0000 C   0  0  0  0  0  0  0  0  0  0  0  0
    9.0933   -2.2500    0.0000 C   0  0  0  0  0  0  0  0  0  0  0  0
    7.7942   -1.5000    0.0000 C   0  0  0  0  0  0  0  0  0  0  0  0
    6.4952   -2.2500    0.0000 C   0  0  0  0  0  0  0  0  0  0  0  0
    5.1962   -1.5000    0.0000 C   0  0  0  0  0  0  0  0  0  0  0  0
    5.1962    0.0000    0.0000 O   0  0  0  0  0  0  0  0  0  0  0  0
    3.8971   -2.2500    0.0000 N   0  0  0  0  0  0  0  0  0  0  0  0
    2.5981   -1.5000    0.0000 C   0  0  0  0  0  0  0  0  0  0  0  0
    1.2990   -2.2500    0.0000 C   0  0  0  0  0  0  0  0  0  0  0  0
   -0.0000   -1.5000    0.0000 O   0  0  0  0  0  0  0  0  0  0  0  0
  1  2  1  0  0  0  0 
  2  3  1  0  0  0  0 
  3  4  1  0  0  0  0 
  4  5  1  0  0  0  0 
  5  6  1  4  0  0  0 
  6  7  2  0  0  0  0 
  7  8  1  0  0  0  0 
  8  9  1  4  0  0  0 
  9 10  2  0  0  0  0 
 10 11  1  0  0  0  0 
 11 12  1  4  0  0  0 
 12 13  2  0  0  0  0 
 13 14  1  0  0  0  0 
 14 15  1  4  0  0  0 
 15 16  2  0  0  0  0 
 16 17  1  0  0  0  0 
 17 18  1  0  0  0  0 
 18 19  1  0  0  0  0 
 19 20  1  0  0  0  0 
 20 21  2  0  0  0  0 
 20 22  1  0  0  0  0 
 22 23  1  0  0  0  0 
 23 24  1  0  0  0  0 
 24 25  1  0  0  0  0 
M  END
> <SMILES>
CCCCCC=C/CC=C/CC=C/CC=C/CCCC(=O)NCCO

$$$$

  CDK     01261921162D

  9  8  0  0  0  0  0  0  0  0999 V2000
    0.0000    0.0000    0.0000 C   0  0  0  0  0  0  0  0  0  0  0  0
    1.2990   -0.7500    0.0000 C   0  0  0  0  0  0  0  0  0  0  0  0
    2.5981   -0.0000    0.0000 N   0  3  0  0  0  0  0  0  0  0  0  0
    3.8971   -0.7500    0.0000 C   0  0  0  0  0  0  0  0  0  0  0  0
    5.1962   -0.0000    0.0000 C   0  0  0  0  0  0  0  0  0  0  0  0
    3.5623    1.1491    0.0000 C   0  0  0  0  0  0  0  0  0  0  0  0
    5.0395    0.8886    0.0000 C   0  0  0  0  0  0  0  0  0  0  0  0
    1.6339    1.1491    0.0000 C   0  0  0  0  0  0  0  0  0  0  0  0
    0.1567    0.8886    0.0000 C   0  0  0  0  0  0  0  0  0  0  0  0
  1  2  1  0  0  0  0 
  2  3  1  0  0  0  0 
  3  4  1  0  0  0  0 
  4  5  1  0  0  0  0 
  3  6  1  0  0  0  0 
  6  7  1  0  0  0  0 
  3  8  1  0  0  0  0 
  8  9  1  0  0  0  0 
M  CHG  1   3   1
M  END
> <SMILES>
CC[N+](CC)(CC)CC

$$$$

  CDK     01261921162D

 13 13  0  0  0  0  0  0  0  0999 V2000
   -3.5733   -0.9379    0.0000 C   0  0  0  0  0  0  0  0  0  0  0  0
   -2.2742   -0.1881    0.0000 C   0  0  0  0  0  0  0  0  0  0  0  0
   -2.2739    1.3119    0.0000 O   0  0  0  0  0  0  0  0  0  0  0  0
   -0.9753   -0.9383    0.0000 O   0  0  0  0  0  0  0  0  0  0  0  0
    0.3239   -0.1885    0.0000 C   0  0  0  0  0  0  0  0  0  0  0  0
    0.3244    1.3123    0.0000 C   0  0  0  0  0  0  0  0  0  0  0  0
    1.6239    2.0632    0.0000 C   0  0  0  0  0  0  0  0  0  0  0  0
    2.9229    1.3132    0.0000 C   0  0  0  0  0  0  0  0  0  0  0  0
    2.9224   -0.1877    0.0000 C   0  0  0  0  0  0  0  0  0  0  0  0
    1.6229   -0.9385    0.0000 C   0  0  0  0  0  0  0  0  0  0  0  0
    1.6232   -2.4385    0.0000 C   0  0  0  0  0  0  0  0  0  0  0  0
    0.3242   -3.1887    0.0000 O   0  0  0  0  0  0  0  0  0  0  0  0
    2.9223   -3.1883    0.0000 O   0  0  0  0  0  0  0  0  0  0  0  0
  1  2  1  0  0  0  0 
  2  3  2  0  0  0  0 
  2  4  1  0  0  0  0 
  4  5  1  0  0  0  0 
  5  6  2  0  0  0  0 
  6  7  1  0  0  0  0 
  7  8  2  0  0  0  0 
  8  9  1  0  0  0  0 
  9 10  2  0  0  0  0 
  5 10  1  0  0  0  0 
 10 11  1  0  0  0  0 
 11 12  2  0  0  0  0 
 11 13  1  0  0  0  0 
M  END
> <SMILES>
CC(=O)Oc1ccccc1C(=O)O

$$$$

  CDK     01261921162D

 24 27  0  0  1  0  0  0  0  0999 V2000
    2.3365    3.1918    0.0000 C   0  0  0  0  0  0  0  0  0  0  0  0
    2.1800    1.7000    0.0000 C   0  0  2  0  0  0  0  0  0  0  0  0
    0.8900    2.4500    0.0000 C   0  0  0  0  0  0  0  0  0  0  0  0
   -0.4100    1.7000    0.0000 C   0  0  0  0  0  0  0  0  0  0  0  0
   -0.4100    0.2000    0.0000 C   0  0  1  0  0  0  0  0  0  0  0  0
    0.8900   -0.5500    0.0000 C   0  0  1  0  0  0  0  0  0  0  0  0
    0.8900   -2.0500    0.0000 C   0  0  0  0  0  0  0  0  0  0  0  0
   -0.4100   -2.8000    0.0000 C   0  0  0  0  0  0  0  0  0  0  0  0
   -1.7100   -2.0500    0.0000 C   0  0  0  0  0  0  0  0  0  0  0  0
   -3.0100   -2.8000    0.0000 C   0  0  0  0  0  0  0  0  0  0  0  0
   -4.3100   -2.0500    0.0000 C   0  0  0  0  0  0  0  0  0  0  0  0
   -5.6089   -2.8002    0.0000 O   0  0  0  0  0  0  0  0  0  0  0  0
   -6.9081   -2.0504    0.0000 S   0  0  0  0  0  0  0  0  0  0  0  0
   -5.9441   -0.9012    0.0000 O   0  0  0  0  0  0  0  0  0  0  0  0
   -7.8724   -0.9015    0.0000 O   0  0  0  0  0  0  0  0  0  0  0  0
   -8.2070   -2.8006    0.0000 O   0  0  0  0  0  0  0  0  0  0  0  0
   -4.3100   -0.5500    0.0000 C   0  0  0  0  0  0  0  0  0  0  0  0
   -3.0100    0.2000    0.0000 C   0  0  0  0  0  0  0  0  0  0  0  0
   -1.7100   -0.5500    0.0000 C   0  0  0  0  0  0  0  0  0  0  0  0
    2.1800    0.2000    0.0000 C   0  0  2  0  0  0  0  0  0  0  0  0
    3.6100   -0.2600    0.0000 C   0  0  0  0  0  0  0  0  0  0  0  0
    4.4900    0.9500    0.0000 C   0  0  0  0  0  0  0  0  0  0  0  0
    3.6100    2.1700    0.0000 C   0  0  0  0  0  0  0  0  0  0  0  0
    4.0736    3.5966    0.0000 O   0  0  0  0  0  0  0  0  0  0  0  0
  2  1  1  1  0  0  0 
  2  3  1  0  0  0  0 
  3  4  1  0  0  0  0 
  5  4  1  1  0  0  0 
  5  6  1  0  0  0  0 
  6  7  1  6  0  0  0 
  7  8  1  0  0  0  0 
  8  9  1  0  0  0  0 
  9 10  2  0  0  0  0 
 10 11  1  0  0  0  0 
 11 12  1  0  0  0  0 
 12 13  1  0  0  0  0 
 13 14  2  0  0  0  0 
 13 15  2  0  0  0  0 
 13 16  1  0  0  0  0 
 11 17  2  0  0  0  0 
 17 18  1  0  0  0  0 
 18 19  2  0  0  0  0 
  5 19  1  0  0  0  0 
  9 19  1  0  0  0  0 
  6 20  1  0  0  0  0 
  2 20  1  0  0  0  0 
 20 21  1  1  0  0  0 
 21 22  1  0  0  0  0 
 22 23  1  0  0  0  0 
  2 23  1  0  0  0  0 
 23 24  2  0  0  0  0 
M  END
> <SMILES>
C[C@]12CC[C@H]3[C@@H](CCc4cc(OS(=O)(=O)O)ccc34)[C@@H]1CCC2=O

$$$$
